
     RDKit          3D

 17 18  0  0  0  0  0  0  0  0999 V2000
   -1.0025   -2.1511    0.9334 C   0  0  0  0  0  0  0  0  0  0  0  0
   -1.4357   -1.0245    0.0019 C   0  0  0  0  0  0  0  0  0  0  0  0
   -1.3642   -1.5878   -1.4247 C   0  0  0  0  0  0  0  0  0  0  0  0
   -2.8163   -0.7210    0.2822 N   0  0  0  0  0  0  0  0  0  0  0  0
   -3.1979    0.4475    0.6080 C   0  0  0  0  0  0  0  0  0  0  0  0
   -4.5950    0.6922    0.8774 N   0  0  0  0  0  0  0  0  0  0  0  0
   -2.3494    1.5793    0.7377 N   0  0  0  0  0  0  0  0  0  0  0  0
   -1.0957    1.3669    0.4976 C   0  0  0  0  0  0  0  0  0  0  0  0
   -0.1784    2.4665    0.6094 N   0  0  0  0  0  0  0  0  0  0  0  0
   -0.5645    0.1126    0.1294 N   0  0  0  0  0  0  0  0  0  0  0  0
    0.8312   -0.0125   -0.1124 C   0  0  0  0  0  0  0  0  0  0  0  0
    1.3508    0.1871   -1.3757 C   0  0  0  0  0  0  0  0  0  0  0  0
    2.7100    0.0708   -1.6375 C   0  0  0  0  0  0  0  0  0  0  0  0
    3.5924   -0.2520   -0.6292 C   0  0  0  0  0  0  0  0  0  0  0  0
    5.2976   -0.3873   -1.0084 Cl  0  0  0  0  0  0  0  0  0  0  0  0
    3.0850   -0.4519    0.6285 C   0  0  0  0  0  0  0  0  0  0  0  0
    1.7327   -0.3347    0.8823 C   0  0  0  0  0  0  0  0  0  0  0  0
  1  2  1  0
  2  3  1  0
  2  4  1  0
  4  5  2  0
  5  6  1  0
  5  7  1  0
  7  8  2  0
  8  9  1  0
  8 10  1  0
 10 11  1  0
 11 12  2  0
 12 13  1  0
 13 14  2  0
 14 15  1  0
 14 16  1  0
 16 17  2  0
 10  2  1  0
 17 11  1  0
M  END
>  <zinc_id>  (1) 
ZINC000000001233

>  <ortholog_name>  (1) 
DRTS_PLAFK

>  <gene_name>  (1) 
DRTS_PLAFK

>  <affinity>  (1) 
8.96

>  <chembldocid>  (1) 
21047

>  <title>  (1) 
None

>  <reference.pubmed_id>  (1) 
15293997

>  <reference.doi>  (1) 
None

>  <reference.chembl_id>  (1) 
CHEMBL1138679

>  <reference.journal>  (1) 
J. Med. Chem.

>  <reference.year>  (1) 
2004

$$$$

     RDKit          3D

 17 18  0  0  0  0  0  0  0  0999 V2000
   -1.0025   -2.1511    0.9334 C   0  0  0  0  0  0  0  0  0  0  0  0
   -1.4357   -1.0245    0.0019 C   0  0  0  0  0  0  0  0  0  0  0  0
   -1.3642   -1.5878   -1.4247 C   0  0  0  0  0  0  0  0  0  0  0  0
   -2.8163   -0.7210    0.2822 N   0  0  0  0  0  0  0  0  0  0  0  0
   -3.1979    0.4475    0.6080 C   0  0  0  0  0  0  0  0  0  0  0  0
   -4.5950    0.6922    0.8774 N   0  0  0  0  0  0  0  0  0  0  0  0
   -2.3494    1.5793    0.7377 N   0  0  0  0  0  0  0  0  0  0  0  0
   -1.0957    1.3669    0.4976 C   0  0  0  0  0  0  0  0  0  0  0  0
   -0.1784    2.4665    0.6094 N   0  0  0  0  0  0  0  0  0  0  0  0
   -0.5645    0.1126    0.1294 N   0  0  0  0  0  0  0  0  0  0  0  0
    0.8312   -0.0125   -0.1124 C   0  0  0  0  0  0  0  0  0  0  0  0
    1.3508    0.1871   -1.3757 C   0  0  0  0  0  0  0  0  0  0  0  0
    2.7100    0.0708   -1.6375 C   0  0  0  0  0  0  0  0  0  0  0  0
    3.5924   -0.2520   -0.6292 C   0  0  0  0  0  0  0  0  0  0  0  0
    5.2976   -0.3873   -1.0084 Cl  0  0  0  0  0  0  0  0  0  0  0  0
    3.0850   -0.4519    0.6285 C   0  0  0  0  0  0  0  0  0  0  0  0
    1.7327   -0.3347    0.8823 C   0  0  0  0  0  0  0  0  0  0  0  0
  1  2  1  0
  2  3  1  0
  2  4  1  0
  4  5  2  0
  5  6  1  0
  5  7  1  0
  7  8  2  0
  8  9  1  0
  8 10  1  0
 10 11  1  0
 11 12  2  0
 12 13  1  0
 13 14  2  0
 14 15  1  0
 14 16  1  0
 16 17  2  0
 10  2  1  0
 17 11  1  0
M  END
>  <zinc_id>  (2) 
ZINC000000001233

>  <ortholog_name>  (2) 
DRTS_PLAFK

>  <gene_name>  (2) 
DRTS_PLAFK

>  <affinity>  (2) 
8.82

>  <chembldocid>  (2) 
15522

>  <title>  (2) 
None

>  <reference.pubmed_id>  (2) 
10893311

>  <reference.doi>  (2) 
None

>  <reference.chembl_id>  (2) 
CHEMBL1133696

>  <reference.journal>  (2) 
J. Med. Chem.

>  <reference.year>  (2) 
2000

$$$$

     RDKit          3D

 17 18  0  0  0  0  0  0  0  0999 V2000
   -1.0025   -2.1511    0.9334 C   0  0  0  0  0  0  0  0  0  0  0  0
   -1.4357   -1.0245    0.0019 C   0  0  0  0  0  0  0  0  0  0  0  0
   -1.3642   -1.5878   -1.4247 C   0  0  0  0  0  0  0  0  0  0  0  0
   -2.8163   -0.7210    0.2822 N   0  0  0  0  0  0  0  0  0  0  0  0
   -3.1979    0.4475    0.6080 C   0  0  0  0  0  0  0  0  0  0  0  0
   -4.5950    0.6922    0.8774 N   0  0  0  0  0  0  0  0  0  0  0  0
   -2.3494    1.5793    0.7377 N   0  0  0  0  0  0  0  0  0  0  0  0
   -1.0957    1.3669    0.4976 C   0  0  0  0  0  0  0  0  0  0  0  0
   -0.1784    2.4665    0.6094 N   0  0  0  0  0  0  0  0  0  0  0  0
   -0.5645    0.1126    0.1294 N   0  0  0  0  0  0  0  0  0  0  0  0
    0.8312   -0.0125   -0.1124 C   0  0  0  0  0  0  0  0  0  0  0  0
    1.3508    0.1871   -1.3757 C   0  0  0  0  0  0  0  0  0  0  0  0
    2.7100    0.0708   -1.6375 C   0  0  0  0  0  0  0  0  0  0  0  0
    3.5924   -0.2520   -0.6292 C   0  0  0  0  0  0  0  0  0  0  0  0
    5.2976   -0.3873   -1.0084 Cl  0  0  0  0  0  0  0  0  0  0  0  0
    3.0850   -0.4519    0.6285 C   0  0  0  0  0  0  0  0  0  0  0  0
    1.7327   -0.3347    0.8823 C   0  0  0  0  0  0  0  0  0  0  0  0
  1  2  1  0
  2  3  1  0
  2  4  1  0
  4  5  2  0
  5  6  1  0
  5  7  1  0
  7  8  2  0
  8  9  1  0
  8 10  1  0
 10 11  1  0
 11 12  2  0
 12 13  1  0
 13 14  2  0
 14 15  1  0
 14 16  1  0
 16 17  2  0
 10  2  1  0
 17 11  1  0
M  END
>  <zinc_id>  (3) 
ZINC000000001233

>  <ortholog_name>  (3) 
DRTS_PLAFK

>  <gene_name>  (3) 
DRTS_PLAFK

>  <affinity>  (3) 
8.82

>  <chembldocid>  (3) 
17662

>  <title>  (3) 
None

>  <reference.pubmed_id>  (3) 
14736247

>  <reference.doi>  (3) 
None

>  <reference.chembl_id>  (3) 
CHEMBL1138835

>  <reference.journal>  (3) 
J. Med. Chem.

>  <reference.year>  (3) 
2004

$$$$

     RDKit          3D

 17 18  0  0  0  0  0  0  0  0999 V2000
   -1.0025   -2.1511    0.9334 C   0  0  0  0  0  0  0  0  0  0  0  0
   -1.4357   -1.0245    0.0019 C   0  0  0  0  0  0  0  0  0  0  0  0
   -1.3642   -1.5878   -1.4247 C   0  0  0  0  0  0  0  0  0  0  0  0
   -2.8163   -0.7210    0.2822 N   0  0  0  0  0  0  0  0  0  0  0  0
   -3.1979    0.4475    0.6080 C   0  0  0  0  0  0  0  0  0  0  0  0
   -4.5950    0.6922    0.8774 N   0  0  0  0  0  0  0  0  0  0  0  0
   -2.3494    1.5793    0.7377 N   0  0  0  0  0  0  0  0  0  0  0  0
   -1.0957    1.3669    0.4976 C   0  0  0  0  0  0  0  0  0  0  0  0
   -0.1784    2.4665    0.6094 N   0  0  0  0  0  0  0  0  0  0  0  0
   -0.5645    0.1126    0.1294 N   0  0  0  0  0  0  0  0  0  0  0  0
    0.8312   -0.0125   -0.1124 C   0  0  0  0  0  0  0  0  0  0  0  0
    1.3508    0.1871   -1.3757 C   0  0  0  0  0  0  0  0  0  0  0  0
    2.7100    0.0708   -1.6375 C   0  0  0  0  0  0  0  0  0  0  0  0
    3.5924   -0.2520   -0.6292 C   0  0  0  0  0  0  0  0  0  0  0  0
    5.2976   -0.3873   -1.0084 Cl  0  0  0  0  0  0  0  0  0  0  0  0
    3.0850   -0.4519    0.6285 C   0  0  0  0  0  0  0  0  0  0  0  0
    1.7327   -0.3347    0.8823 C   0  0  0  0  0  0  0  0  0  0  0  0
  1  2  1  0
  2  3  1  0
  2  4  1  0
  4  5  2  0
  5  6  1  0
  5  7  1  0
  7  8  2  0
  8  9  1  0
  8 10  1  0
 10 11  1  0
 11 12  2  0
 12 13  1  0
 13 14  2  0
 14 15  1  0
 14 16  1  0
 16 17  2  0
 10  2  1  0
 17 11  1  0
M  END
>  <zinc_id>  (4) 
ZINC000000001233

>  <ortholog_name>  (4) 
DRTS_PLAFK

>  <gene_name>  (4) 
DRTS_PLAFK

>  <affinity>  (4) 
8.80

>  <chembldocid>  (4) 
17071

>  <title>  (4) 
None

>  <reference.pubmed_id>  (4) 
12825927

>  <reference.doi>  (4) 
None

>  <reference.chembl_id>  (4) 
CHEMBL1145823

>  <reference.journal>  (4) 
J. Med. Chem.

>  <reference.year>  (4) 
2003

$$$$

     RDKit          3D

 17 18  0  0  0  0  0  0  0  0999 V2000
   -1.0025   -2.1511    0.9334 C   0  0  0  0  0  0  0  0  0  0  0  0
   -1.4357   -1.0245    0.0019 C   0  0  0  0  0  0  0  0  0  0  0  0
   -1.3642   -1.5878   -1.4247 C   0  0  0  0  0  0  0  0  0  0  0  0
   -2.8163   -0.7210    0.2822 N   0  0  0  0  0  0  0  0  0  0  0  0
   -3.1979    0.4475    0.6080 C   0  0  0  0  0  0  0  0  0  0  0  0
   -4.5950    0.6922    0.8774 N   0  0  0  0  0  0  0  0  0  0  0  0
   -2.3494    1.5793    0.7377 N   0  0  0  0  0  0  0  0  0  0  0  0
   -1.0957    1.3669    0.4976 C   0  0  0  0  0  0  0  0  0  0  0  0
   -0.1784    2.4665    0.6094 N   0  0  0  0  0  0  0  0  0  0  0  0
   -0.5645    0.1126    0.1294 N   0  0  0  0  0  0  0  0  0  0  0  0
    0.8312   -0.0125   -0.1124 C   0  0  0  0  0  0  0  0  0  0  0  0
    1.3508    0.1871   -1.3757 C   0  0  0  0  0  0  0  0  0  0  0  0
    2.7100    0.0708   -1.6375 C   0  0  0  0  0  0  0  0  0  0  0  0
    3.5924   -0.2520   -0.6292 C   0  0  0  0  0  0  0  0  0  0  0  0
    5.2976   -0.3873   -1.0084 Cl  0  0  0  0  0  0  0  0  0  0  0  0
    3.0850   -0.4519    0.6285 C   0  0  0  0  0  0  0  0  0  0  0  0
    1.7327   -0.3347    0.8823 C   0  0  0  0  0  0  0  0  0  0  0  0
  1  2  1  0
  2  3  1  0
  2  4  1  0
  4  5  2  0
  5  6  1  0
  5  7  1  0
  7  8  2  0
  8  9  1  0
  8 10  1  0
 10 11  1  0
 11 12  2  0
 12 13  1  0
 13 14  2  0
 14 15  1  0
 14 16  1  0
 16 17  2  0
 10  2  1  0
 17 11  1  0
M  END
>  <zinc_id>  (5) 
ZINC000000001233

>  <ortholog_name>  (5) 
DRTS_PLAFK

>  <gene_name>  (5) 
DRTS_PLAFK

>  <affinity>  (5) 
5.94

>  <chembldocid>  (5) 
17071

>  <title>  (5) 
None

>  <reference.pubmed_id>  (5) 
12825927

>  <reference.doi>  (5) 
None

>  <reference.chembl_id>  (5) 
CHEMBL1145823

>  <reference.journal>  (5) 
J. Med. Chem.

>  <reference.year>  (5) 
2003

$$$$

     RDKit          3D

 17 18  0  0  0  0  0  0  0  0999 V2000
   -1.0025   -2.1511    0.9334 C   0  0  0  0  0  0  0  0  0  0  0  0
   -1.4357   -1.0245    0.0019 C   0  0  0  0  0  0  0  0  0  0  0  0
   -1.3642   -1.5878   -1.4247 C   0  0  0  0  0  0  0  0  0  0  0  0
   -2.8163   -0.7210    0.2822 N   0  0  0  0  0  0  0  0  0  0  0  0
   -3.1979    0.4475    0.6080 C   0  0  0  0  0  0  0  0  0  0  0  0
   -4.5950    0.6922    0.8774 N   0  0  0  0  0  0  0  0  0  0  0  0
   -2.3494    1.5793    0.7377 N   0  0  0  0  0  0  0  0  0  0  0  0
   -1.0957    1.3669    0.4976 C   0  0  0  0  0  0  0  0  0  0  0  0
   -0.1784    2.4665    0.6094 N   0  0  0  0  0  0  0  0  0  0  0  0
   -0.5645    0.1126    0.1294 N   0  0  0  0  0  0  0  0  0  0  0  0
    0.8312   -0.0125   -0.1124 C   0  0  0  0  0  0  0  0  0  0  0  0
    1.3508    0.1871   -1.3757 C   0  0  0  0  0  0  0  0  0  0  0  0
    2.7100    0.0708   -1.6375 C   0  0  0  0  0  0  0  0  0  0  0  0
    3.5924   -0.2520   -0.6292 C   0  0  0  0  0  0  0  0  0  0  0  0
    5.2976   -0.3873   -1.0084 Cl  0  0  0  0  0  0  0  0  0  0  0  0
    3.0850   -0.4519    0.6285 C   0  0  0  0  0  0  0  0  0  0  0  0
    1.7327   -0.3347    0.8823 C   0  0  0  0  0  0  0  0  0  0  0  0
  1  2  1  0
  2  3  1  0
  2  4  1  0
  4  5  2  0
  5  6  1  0
  5  7  1  0
  7  8  2  0
  8  9  1  0
  8 10  1  0
 10 11  1  0
 11 12  2  0
 12 13  1  0
 13 14  2  0
 14 15  1  0
 14 16  1  0
 16 17  2  0
 10  2  1  0
 17 11  1  0
M  END
>  <zinc_id>  (6) 
ZINC000000001233

>  <ortholog_name>  (6) 
DRTS_PLAFK

>  <gene_name>  (6) 
DRTS_PLAFK

>  <affinity>  (6) 
5.88

>  <chembldocid>  (6) 
15522

>  <title>  (6) 
None

>  <reference.pubmed_id>  (6) 
10893311

>  <reference.doi>  (6) 
None

>  <reference.chembl_id>  (6) 
CHEMBL1133696

>  <reference.journal>  (6) 
J. Med. Chem.

>  <reference.year>  (6) 
2000

$$$$

     RDKit          3D

 17 18  0  0  0  0  0  0  0  0999 V2000
   -1.0025   -2.1511    0.9334 C   0  0  0  0  0  0  0  0  0  0  0  0
   -1.4357   -1.0245    0.0019 C   0  0  0  0  0  0  0  0  0  0  0  0
   -1.3642   -1.5878   -1.4247 C   0  0  0  0  0  0  0  0  0  0  0  0
   -2.8163   -0.7210    0.2822 N   0  0  0  0  0  0  0  0  0  0  0  0
   -3.1979    0.4475    0.6080 C   0  0  0  0  0  0  0  0  0  0  0  0
   -4.5950    0.6922    0.8774 N   0  0  0  0  0  0  0  0  0  0  0  0
   -2.3494    1.5793    0.7377 N   0  0  0  0  0  0  0  0  0  0  0  0
   -1.0957    1.3669    0.4976 C   0  0  0  0  0  0  0  0  0  0  0  0
   -0.1784    2.4665    0.6094 N   0  0  0  0  0  0  0  0  0  0  0  0
   -0.5645    0.1126    0.1294 N   0  0  0  0  0  0  0  0  0  0  0  0
    0.8312   -0.0125   -0.1124 C   0  0  0  0  0  0  0  0  0  0  0  0
    1.3508    0.1871   -1.3757 C   0  0  0  0  0  0  0  0  0  0  0  0
    2.7100    0.0708   -1.6375 C   0  0  0  0  0  0  0  0  0  0  0  0
    3.5924   -0.2520   -0.6292 C   0  0  0  0  0  0  0  0  0  0  0  0
    5.2976   -0.3873   -1.0084 Cl  0  0  0  0  0  0  0  0  0  0  0  0
    3.0850   -0.4519    0.6285 C   0  0  0  0  0  0  0  0  0  0  0  0
    1.7327   -0.3347    0.8823 C   0  0  0  0  0  0  0  0  0  0  0  0
  1  2  1  0
  2  3  1  0
  2  4  1  0
  4  5  2  0
  5  6  1  0
  5  7  1  0
  7  8  2  0
  8  9  1  0
  8 10  1  0
 10 11  1  0
 11 12  2  0
 12 13  1  0
 13 14  2  0
 14 15  1  0
 14 16  1  0
 16 17  2  0
 10  2  1  0
 17 11  1  0
M  END
>  <zinc_id>  (7) 
ZINC000000001233

>  <ortholog_name>  (7) 
DRTS_PLAFK

>  <gene_name>  (7) 
DRTS_PLAFK

>  <affinity>  (7) 
5.88

>  <chembldocid>  (7) 
17662

>  <title>  (7) 
None

>  <reference.pubmed_id>  (7) 
14736247

>  <reference.doi>  (7) 
None

>  <reference.chembl_id>  (7) 
CHEMBL1138835

>  <reference.journal>  (7) 
J. Med. Chem.

>  <reference.year>  (7) 
2004

$$$$

     RDKit          3D

 17 18  0  0  0  0  0  0  0  0999 V2000
   -1.0025   -2.1511    0.9334 C   0  0  0  0  0  0  0  0  0  0  0  0
   -1.4357   -1.0245    0.0019 C   0  0  0  0  0  0  0  0  0  0  0  0
   -1.3642   -1.5878   -1.4247 C   0  0  0  0  0  0  0  0  0  0  0  0
   -2.8163   -0.7210    0.2822 N   0  0  0  0  0  0  0  0  0  0  0  0
   -3.1979    0.4475    0.6080 C   0  0  0  0  0  0  0  0  0  0  0  0
   -4.5950    0.6922    0.8774 N   0  0  0  0  0  0  0  0  0  0  0  0
   -2.3494    1.5793    0.7377 N   0  0  0  0  0  0  0  0  0  0  0  0
   -1.0957    1.3669    0.4976 C   0  0  0  0  0  0  0  0  0  0  0  0
   -0.1784    2.4665    0.6094 N   0  0  0  0  0  0  0  0  0  0  0  0
   -0.5645    0.1126    0.1294 N   0  0  0  0  0  0  0  0  0  0  0  0
    0.8312   -0.0125   -0.1124 C   0  0  0  0  0  0  0  0  0  0  0  0
    1.3508    0.1871   -1.3757 C   0  0  0  0  0  0  0  0  0  0  0  0
    2.7100    0.0708   -1.6375 C   0  0  0  0  0  0  0  0  0  0  0  0
    3.5924   -0.2520   -0.6292 C   0  0  0  0  0  0  0  0  0  0  0  0
    5.2976   -0.3873   -1.0084 Cl  0  0  0  0  0  0  0  0  0  0  0  0
    3.0850   -0.4519    0.6285 C   0  0  0  0  0  0  0  0  0  0  0  0
    1.7327   -0.3347    0.8823 C   0  0  0  0  0  0  0  0  0  0  0  0
  1  2  1  0
  2  3  1  0
  2  4  1  0
  4  5  2  0
  5  6  1  0
  5  7  1  0
  7  8  2  0
  8  9  1  0
  8 10  1  0
 10 11  1  0
 11 12  2  0
 12 13  1  0
 13 14  2  0
 14 15  1  0
 14 16  1  0
 16 17  2  0
 10  2  1  0
 17 11  1  0
M  END
>  <zinc_id>  (8) 
ZINC000000001233

>  <ortholog_name>  (8) 
DRTS_PLAFK

>  <gene_name>  (8) 
DRTS_PLAFK

>  <affinity>  (8) 
8.59

>  <chembldocid>  (8) 
14888

>  <title>  (8) 
None

>  <reference.pubmed_id>  (8) 
9554869

>  <reference.doi>  (8) 
None

>  <reference.chembl_id>  (8) 
CHEMBL1131602

>  <reference.journal>  (8) 
J. Med. Chem.

>  <reference.year>  (8) 
1998

$$$$

     RDKit          3D

 17 18  0  0  0  0  0  0  0  0999 V2000
   -1.0025   -2.1511    0.9334 C   0  0  0  0  0  0  0  0  0  0  0  0
   -1.4357   -1.0245    0.0019 C   0  0  0  0  0  0  0  0  0  0  0  0
   -1.3642   -1.5878   -1.4247 C   0  0  0  0  0  0  0  0  0  0  0  0
   -2.8163   -0.7210    0.2822 N   0  0  0  0  0  0  0  0  0  0  0  0
   -3.1979    0.4475    0.6080 C   0  0  0  0  0  0  0  0  0  0  0  0
   -4.5950    0.6922    0.8774 N   0  0  0  0  0  0  0  0  0  0  0  0
   -2.3494    1.5793    0.7377 N   0  0  0  0  0  0  0  0  0  0  0  0
   -1.0957    1.3669    0.4976 C   0  0  0  0  0  0  0  0  0  0  0  0
   -0.1784    2.4665    0.6094 N   0  0  0  0  0  0  0  0  0  0  0  0
   -0.5645    0.1126    0.1294 N   0  0  0  0  0  0  0  0  0  0  0  0
    0.8312   -0.0125   -0.1124 C   0  0  0  0  0  0  0  0  0  0  0  0
    1.3508    0.1871   -1.3757 C   0  0  0  0  0  0  0  0  0  0  0  0
    2.7100    0.0708   -1.6375 C   0  0  0  0  0  0  0  0  0  0  0  0
    3.5924   -0.2520   -0.6292 C   0  0  0  0  0  0  0  0  0  0  0  0
    5.2976   -0.3873   -1.0084 Cl  0  0  0  0  0  0  0  0  0  0  0  0
    3.0850   -0.4519    0.6285 C   0  0  0  0  0  0  0  0  0  0  0  0
    1.7327   -0.3347    0.8823 C   0  0  0  0  0  0  0  0  0  0  0  0
  1  2  1  0
  2  3  1  0
  2  4  1  0
  4  5  2  0
  5  6  1  0
  5  7  1  0
  7  8  2  0
  8  9  1  0
  8 10  1  0
 10 11  1  0
 11 12  2  0
 12 13  1  0
 13 14  2  0
 14 15  1  0
 14 16  1  0
 16 17  2  0
 10  2  1  0
 17 11  1  0
M  END
>  <zinc_id>  (9) 
ZINC000000001233

>  <ortholog_name>  (9) 
DRTS_PLAFK

>  <gene_name>  (9) 
DRTS_PLAFK

>  <affinity>  (9) 
8.59

>  <chembldocid>  (9) 
17071

>  <title>  (9) 
None

>  <reference.pubmed_id>  (9) 
12825927

>  <reference.doi>  (9) 
None

>  <reference.chembl_id>  (9) 
CHEMBL1145823

>  <reference.journal>  (9) 
J. Med. Chem.

>  <reference.year>  (9) 
2003

$$$$

     RDKit          3D

 17 18  0  0  0  0  0  0  0  0999 V2000
   -1.0025   -2.1511    0.9334 C   0  0  0  0  0  0  0  0  0  0  0  0
   -1.4357   -1.0245    0.0019 C   0  0  0  0  0  0  0  0  0  0  0  0
   -1.3642   -1.5878   -1.4247 C   0  0  0  0  0  0  0  0  0  0  0  0
   -2.8163   -0.7210    0.2822 N   0  0  0  0  0  0  0  0  0  0  0  0
   -3.1979    0.4475    0.6080 C   0  0  0  0  0  0  0  0  0  0  0  0
   -4.5950    0.6922    0.8774 N   0  0  0  0  0  0  0  0  0  0  0  0
   -2.3494    1.5793    0.7377 N   0  0  0  0  0  0  0  0  0  0  0  0
   -1.0957    1.3669    0.4976 C   0  0  0  0  0  0  0  0  0  0  0  0
   -0.1784    2.4665    0.6094 N   0  0  0  0  0  0  0  0  0  0  0  0
   -0.5645    0.1126    0.1294 N   0  0  0  0  0  0  0  0  0  0  0  0
    0.8312   -0.0125   -0.1124 C   0  0  0  0  0  0  0  0  0  0  0  0
    1.3508    0.1871   -1.3757 C   0  0  0  0  0  0  0  0  0  0  0  0
    2.7100    0.0708   -1.6375 C   0  0  0  0  0  0  0  0  0  0  0  0
    3.5924   -0.2520   -0.6292 C   0  0  0  0  0  0  0  0  0  0  0  0
    5.2976   -0.3873   -1.0084 Cl  0  0  0  0  0  0  0  0  0  0  0  0
    3.0850   -0.4519    0.6285 C   0  0  0  0  0  0  0  0  0  0  0  0
    1.7327   -0.3347    0.8823 C   0  0  0  0  0  0  0  0  0  0  0  0
  1  2  1  0
  2  3  1  0
  2  4  1  0
  4  5  2  0
  5  6  1  0
  5  7  1  0
  7  8  2  0
  8  9  1  0
  8 10  1  0
 10 11  1  0
 11 12  2  0
 12 13  1  0
 13 14  2  0
 14 15  1  0
 14 16  1  0
 16 17  2  0
 10  2  1  0
 17 11  1  0
M  END
>  <zinc_id>  (10) 
ZINC000000001233

>  <ortholog_name>  (10) 
DRTS_PLAFK

>  <gene_name>  (10) 
DRTS_PLAFK

>  <affinity>  (10) 
5.67

>  <chembldocid>  (10) 
17071

>  <title>  (10) 
None

>  <reference.pubmed_id>  (10) 
12825927

>  <reference.doi>  (10) 
None

>  <reference.chembl_id>  (10) 
CHEMBL1145823

>  <reference.journal>  (10) 
J. Med. Chem.

>  <reference.year>  (10) 
2003

$$$$

     RDKit          3D

 17 18  0  0  0  0  0  0  0  0999 V2000
   -1.0025   -2.1511    0.9334 C   0  0  0  0  0  0  0  0  0  0  0  0
   -1.4357   -1.0245    0.0019 C   0  0  0  0  0  0  0  0  0  0  0  0
   -1.3642   -1.5878   -1.4247 C   0  0  0  0  0  0  0  0  0  0  0  0
   -2.8163   -0.7210    0.2822 N   0  0  0  0  0  0  0  0  0  0  0  0
   -3.1979    0.4475    0.6080 C   0  0  0  0  0  0  0  0  0  0  0  0
   -4.5950    0.6922    0.8774 N   0  0  0  0  0  0  0  0  0  0  0  0
   -2.3494    1.5793    0.7377 N   0  0  0  0  0  0  0  0  0  0  0  0
   -1.0957    1.3669    0.4976 C   0  0  0  0  0  0  0  0  0  0  0  0
   -0.1784    2.4665    0.6094 N   0  0  0  0  0  0  0  0  0  0  0  0
   -0.5645    0.1126    0.1294 N   0  0  0  0  0  0  0  0  0  0  0  0
    0.8312   -0.0125   -0.1124 C   0  0  0  0  0  0  0  0  0  0  0  0
    1.3508    0.1871   -1.3757 C   0  0  0  0  0  0  0  0  0  0  0  0
    2.7100    0.0708   -1.6375 C   0  0  0  0  0  0  0  0  0  0  0  0
    3.5924   -0.2520   -0.6292 C   0  0  0  0  0  0  0  0  0  0  0  0
    5.2976   -0.3873   -1.0084 Cl  0  0  0  0  0  0  0  0  0  0  0  0
    3.0850   -0.4519    0.6285 C   0  0  0  0  0  0  0  0  0  0  0  0
    1.7327   -0.3347    0.8823 C   0  0  0  0  0  0  0  0  0  0  0  0
  1  2  1  0
  2  3  1  0
  2  4  1  0
  4  5  2  0
  5  6  1  0
  5  7  1  0
  7  8  2  0
  8  9  1  0
  8 10  1  0
 10 11  1  0
 11 12  2  0
 12 13  1  0
 13 14  2  0
 14 15  1  0
 14 16  1  0
 16 17  2  0
 10  2  1  0
 17 11  1  0
M  END
>  <zinc_id>  (11) 
ZINC000000001233

>  <ortholog_name>  (11) 
DRTS_PLAFK

>  <gene_name>  (11) 
DRTS_PLAFK

>  <affinity>  (11) 
5.62

>  <chembldocid>  (11) 
17662

>  <title>  (11) 
None

>  <reference.pubmed_id>  (11) 
14736247

>  <reference.doi>  (11) 
None

>  <reference.chembl_id>  (11) 
CHEMBL1138835

>  <reference.journal>  (11) 
J. Med. Chem.

>  <reference.year>  (11) 
2004

$$$$

     RDKit          3D

 17 18  0  0  0  0  0  0  0  0999 V2000
   -1.0025   -2.1511    0.9334 C   0  0  0  0  0  0  0  0  0  0  0  0
   -1.4357   -1.0245    0.0019 C   0  0  0  0  0  0  0  0  0  0  0  0
   -1.3642   -1.5878   -1.4247 C   0  0  0  0  0  0  0  0  0  0  0  0
   -2.8163   -0.7210    0.2822 N   0  0  0  0  0  0  0  0  0  0  0  0
   -3.1979    0.4475    0.6080 C   0  0  0  0  0  0  0  0  0  0  0  0
   -4.5950    0.6922    0.8774 N   0  0  0  0  0  0  0  0  0  0  0  0
   -2.3494    1.5793    0.7377 N   0  0  0  0  0  0  0  0  0  0  0  0
   -1.0957    1.3669    0.4976 C   0  0  0  0  0  0  0  0  0  0  0  0
   -0.1784    2.4665    0.6094 N   0  0  0  0  0  0  0  0  0  0  0  0
   -0.5645    0.1126    0.1294 N   0  0  0  0  0  0  0  0  0  0  0  0
    0.8312   -0.0125   -0.1124 C   0  0  0  0  0  0  0  0  0  0  0  0
    1.3508    0.1871   -1.3757 C   0  0  0  0  0  0  0  0  0  0  0  0
    2.7100    0.0708   -1.6375 C   0  0  0  0  0  0  0  0  0  0  0  0
    3.5924   -0.2520   -0.6292 C   0  0  0  0  0  0  0  0  0  0  0  0
    5.2976   -0.3873   -1.0084 Cl  0  0  0  0  0  0  0  0  0  0  0  0
    3.0850   -0.4519    0.6285 C   0  0  0  0  0  0  0  0  0  0  0  0
    1.7327   -0.3347    0.8823 C   0  0  0  0  0  0  0  0  0  0  0  0
  1  2  1  0
  2  3  1  0
  2  4  1  0
  4  5  2  0
  5  6  1  0
  5  7  1  0
  7  8  2  0
  8  9  1  0
  8 10  1  0
 10 11  1  0
 11 12  2  0
 12 13  1  0
 13 14  2  0
 14 15  1  0
 14 16  1  0
 16 17  2  0
 10  2  1  0
 17 11  1  0
M  END
>  <zinc_id>  (12) 
ZINC000000001233

>  <ortholog_name>  (12) 
DRTS_PLAFK

>  <gene_name>  (12) 
DRTS_PLAFK

>  <affinity>  (12) 
6.55

>  <chembldocid>  (12) 
17662

>  <title>  (12) 
None

>  <reference.pubmed_id>  (12) 
14736247

>  <reference.doi>  (12) 
None

>  <reference.chembl_id>  (12) 
CHEMBL1138835

>  <reference.journal>  (12) 
J. Med. Chem.

>  <reference.year>  (12) 
2004

$$$$

     RDKit          3D

 17 18  0  0  0  0  0  0  0  0999 V2000
   -1.0025   -2.1511    0.9334 C   0  0  0  0  0  0  0  0  0  0  0  0
   -1.4357   -1.0245    0.0019 C   0  0  0  0  0  0  0  0  0  0  0  0
   -1.3642   -1.5878   -1.4247 C   0  0  0  0  0  0  0  0  0  0  0  0
   -2.8163   -0.7210    0.2822 N   0  0  0  0  0  0  0  0  0  0  0  0
   -3.1979    0.4475    0.6080 C   0  0  0  0  0  0  0  0  0  0  0  0
   -4.5950    0.6922    0.8774 N   0  0  0  0  0  0  0  0  0  0  0  0
   -2.3494    1.5793    0.7377 N   0  0  0  0  0  0  0  0  0  0  0  0
   -1.0957    1.3669    0.4976 C   0  0  0  0  0  0  0  0  0  0  0  0
   -0.1784    2.4665    0.6094 N   0  0  0  0  0  0  0  0  0  0  0  0
   -0.5645    0.1126    0.1294 N   0  0  0  0  0  0  0  0  0  0  0  0
    0.8312   -0.0125   -0.1124 C   0  0  0  0  0  0  0  0  0  0  0  0
    1.3508    0.1871   -1.3757 C   0  0  0  0  0  0  0  0  0  0  0  0
    2.7100    0.0708   -1.6375 C   0  0  0  0  0  0  0  0  0  0  0  0
    3.5924   -0.2520   -0.6292 C   0  0  0  0  0  0  0  0  0  0  0  0
    5.2976   -0.3873   -1.0084 Cl  0  0  0  0  0  0  0  0  0  0  0  0
    3.0850   -0.4519    0.6285 C   0  0  0  0  0  0  0  0  0  0  0  0
    1.7327   -0.3347    0.8823 C   0  0  0  0  0  0  0  0  0  0  0  0
  1  2  1  0
  2  3  1  0
  2  4  1  0
  4  5  2  0
  5  6  1  0
  5  7  1  0
  7  8  2  0
  8  9  1  0
  8 10  1  0
 10 11  1  0
 11 12  2  0
 12 13  1  0
 13 14  2  0
 14 15  1  0
 14 16  1  0
 16 17  2  0
 10  2  1  0
 17 11  1  0
M  END
>  <zinc_id>  (13) 
ZINC000000001233

>  <ortholog_name>  (13) 
DRTS_PLAFK

>  <gene_name>  (13) 
DRTS_PLAFK

>  <affinity>  (13) 
7.50

>  <chembldocid>  (13) 
17662

>  <title>  (13) 
None

>  <reference.pubmed_id>  (13) 
14736247

>  <reference.doi>  (13) 
None

>  <reference.chembl_id>  (13) 
CHEMBL1138835

>  <reference.journal>  (13) 
J. Med. Chem.

>  <reference.year>  (13) 
2004

$$$$

     RDKit          3D

 17 18  0  0  0  0  0  0  0  0999 V2000
   -1.0025   -2.1511    0.9334 C   0  0  0  0  0  0  0  0  0  0  0  0
   -1.4357   -1.0245    0.0019 C   0  0  0  0  0  0  0  0  0  0  0  0
   -1.3642   -1.5878   -1.4247 C   0  0  0  0  0  0  0  0  0  0  0  0
   -2.8163   -0.7210    0.2822 N   0  0  0  0  0  0  0  0  0  0  0  0
   -3.1979    0.4475    0.6080 C   0  0  0  0  0  0  0  0  0  0  0  0
   -4.5950    0.6922    0.8774 N   0  0  0  0  0  0  0  0  0  0  0  0
   -2.3494    1.5793    0.7377 N   0  0  0  0  0  0  0  0  0  0  0  0
   -1.0957    1.3669    0.4976 C   0  0  0  0  0  0  0  0  0  0  0  0
   -0.1784    2.4665    0.6094 N   0  0  0  0  0  0  0  0  0  0  0  0
   -0.5645    0.1126    0.1294 N   0  0  0  0  0  0  0  0  0  0  0  0
    0.8312   -0.0125   -0.1124 C   0  0  0  0  0  0  0  0  0  0  0  0
    1.3508    0.1871   -1.3757 C   0  0  0  0  0  0  0  0  0  0  0  0
    2.7100    0.0708   -1.6375 C   0  0  0  0  0  0  0  0  0  0  0  0
    3.5924   -0.2520   -0.6292 C   0  0  0  0  0  0  0  0  0  0  0  0
    5.2976   -0.3873   -1.0084 Cl  0  0  0  0  0  0  0  0  0  0  0  0
    3.0850   -0.4519    0.6285 C   0  0  0  0  0  0  0  0  0  0  0  0
    1.7327   -0.3347    0.8823 C   0  0  0  0  0  0  0  0  0  0  0  0
  1  2  1  0
  2  3  1  0
  2  4  1  0
  4  5  2  0
  5  6  1  0
  5  7  1  0
  7  8  2  0
  8  9  1  0
  8 10  1  0
 10 11  1  0
 11 12  2  0
 12 13  1  0
 13 14  2  0
 14 15  1  0
 14 16  1  0
 16 17  2  0
 10  2  1  0
 17 11  1  0
M  END
>  <zinc_id>  (14) 
ZINC000000001233

>  <ortholog_name>  (14) 
DRTS_PLAFK

>  <gene_name>  (14) 
DRTS_PLAFK

>  <affinity>  (14) 
5.43

>  <chembldocid>  (14) 
17662

>  <title>  (14) 
None

>  <reference.pubmed_id>  (14) 
14736247

>  <reference.doi>  (14) 
None

>  <reference.chembl_id>  (14) 
CHEMBL1138835

>  <reference.journal>  (14) 
J. Med. Chem.

>  <reference.year>  (14) 
2004

$$$$

     RDKit          3D

 17 18  0  0  0  0  0  0  0  0999 V2000
   -1.0025   -2.1511    0.9334 C   0  0  0  0  0  0  0  0  0  0  0  0
   -1.4357   -1.0245    0.0019 C   0  0  0  0  0  0  0  0  0  0  0  0
   -1.3642   -1.5878   -1.4247 C   0  0  0  0  0  0  0  0  0  0  0  0
   -2.8163   -0.7210    0.2822 N   0  0  0  0  0  0  0  0  0  0  0  0
   -3.1979    0.4475    0.6080 C   0  0  0  0  0  0  0  0  0  0  0  0
   -4.5950    0.6922    0.8774 N   0  0  0  0  0  0  0  0  0  0  0  0
   -2.3494    1.5793    0.7377 N   0  0  0  0  0  0  0  0  0  0  0  0
   -1.0957    1.3669    0.4976 C   0  0  0  0  0  0  0  0  0  0  0  0
   -0.1784    2.4665    0.6094 N   0  0  0  0  0  0  0  0  0  0  0  0
   -0.5645    0.1126    0.1294 N   0  0  0  0  0  0  0  0  0  0  0  0
    0.8312   -0.0125   -0.1124 C   0  0  0  0  0  0  0  0  0  0  0  0
    1.3508    0.1871   -1.3757 C   0  0  0  0  0  0  0  0  0  0  0  0
    2.7100    0.0708   -1.6375 C   0  0  0  0  0  0  0  0  0  0  0  0
    3.5924   -0.2520   -0.6292 C   0  0  0  0  0  0  0  0  0  0  0  0
    5.2976   -0.3873   -1.0084 Cl  0  0  0  0  0  0  0  0  0  0  0  0
    3.0850   -0.4519    0.6285 C   0  0  0  0  0  0  0  0  0  0  0  0
    1.7327   -0.3347    0.8823 C   0  0  0  0  0  0  0  0  0  0  0  0
  1  2  1  0
  2  3  1  0
  2  4  1  0
  4  5  2  0
  5  6  1  0
  5  7  1  0
  7  8  2  0
  8  9  1  0
  8 10  1  0
 10 11  1  0
 11 12  2  0
 12 13  1  0
 13 14  2  0
 14 15  1  0
 14 16  1  0
 16 17  2  0
 10  2  1  0
 17 11  1  0
M  END
>  <zinc_id>  (15) 
ZINC000000001233

>  <ortholog_name>  (15) 
DRTS_PLAFK

>  <gene_name>  (15) 
DRTS_PLAFK

>  <affinity>  (15) 
7.40

>  <chembldocid>  (15) 
17662

>  <title>  (15) 
None

>  <reference.pubmed_id>  (15) 
14736247

>  <reference.doi>  (15) 
None

>  <reference.chembl_id>  (15) 
CHEMBL1138835

>  <reference.journal>  (15) 
J. Med. Chem.

>  <reference.year>  (15) 
2004

$$$$

     RDKit          3D

 17 18  0  0  0  0  0  0  0  0999 V2000
   -1.0025   -2.1511    0.9334 C   0  0  0  0  0  0  0  0  0  0  0  0
   -1.4357   -1.0245    0.0019 C   0  0  0  0  0  0  0  0  0  0  0  0
   -1.3642   -1.5878   -1.4247 C   0  0  0  0  0  0  0  0  0  0  0  0
   -2.8163   -0.7210    0.2822 N   0  0  0  0  0  0  0  0  0  0  0  0
   -3.1979    0.4475    0.6080 C   0  0  0  0  0  0  0  0  0  0  0  0
   -4.5950    0.6922    0.8774 N   0  0  0  0  0  0  0  0  0  0  0  0
   -2.3494    1.5793    0.7377 N   0  0  0  0  0  0  0  0  0  0  0  0
   -1.0957    1.3669    0.4976 C   0  0  0  0  0  0  0  0  0  0  0  0
   -0.1784    2.4665    0.6094 N   0  0  0  0  0  0  0  0  0  0  0  0
   -0.5645    0.1126    0.1294 N   0  0  0  0  0  0  0  0  0  0  0  0
    0.8312   -0.0125   -0.1124 C   0  0  0  0  0  0  0  0  0  0  0  0
    1.3508    0.1871   -1.3757 C   0  0  0  0  0  0  0  0  0  0  0  0
    2.7100    0.0708   -1.6375 C   0  0  0  0  0  0  0  0  0  0  0  0
    3.5924   -0.2520   -0.6292 C   0  0  0  0  0  0  0  0  0  0  0  0
    5.2976   -0.3873   -1.0084 Cl  0  0  0  0  0  0  0  0  0  0  0  0
    3.0850   -0.4519    0.6285 C   0  0  0  0  0  0  0  0  0  0  0  0
    1.7327   -0.3347    0.8823 C   0  0  0  0  0  0  0  0  0  0  0  0
  1  2  1  0
  2  3  1  0
  2  4  1  0
  4  5  2  0
  5  6  1  0
  5  7  1  0
  7  8  2  0
  8  9  1  0
  8 10  1  0
 10 11  1  0
 11 12  2  0
 12 13  1  0
 13 14  2  0
 14 15  1  0
 14 16  1  0
 16 17  2  0
 10  2  1  0
 17 11  1  0
M  END
>  <zinc_id>  (16) 
ZINC000000001233

>  <ortholog_name>  (16) 
DRTS_PLAFK

>  <gene_name>  (16) 
DRTS_PLAFK

>  <affinity>  (16) 
6.38

>  <chembldocid>  (16) 
17662

>  <title>  (16) 
None

>  <reference.pubmed_id>  (16) 
14736247

>  <reference.doi>  (16) 
None

>  <reference.chembl_id>  (16) 
CHEMBL1138835

>  <reference.journal>  (16) 
J. Med. Chem.

>  <reference.year>  (16) 
2004

$$$$

     RDKit          3D

 17 18  0  0  0  0  0  0  0  0999 V2000
   -1.0025   -2.1511    0.9334 C   0  0  0  0  0  0  0  0  0  0  0  0
   -1.4357   -1.0245    0.0019 C   0  0  0  0  0  0  0  0  0  0  0  0
   -1.3642   -1.5878   -1.4247 C   0  0  0  0  0  0  0  0  0  0  0  0
   -2.8163   -0.7210    0.2822 N   0  0  0  0  0  0  0  0  0  0  0  0
   -3.1979    0.4475    0.6080 C   0  0  0  0  0  0  0  0  0  0  0  0
   -4.5950    0.6922    0.8774 N   0  0  0  0  0  0  0  0  0  0  0  0
   -2.3494    1.5793    0.7377 N   0  0  0  0  0  0  0  0  0  0  0  0
   -1.0957    1.3669    0.4976 C   0  0  0  0  0  0  0  0  0  0  0  0
   -0.1784    2.4665    0.6094 N   0  0  0  0  0  0  0  0  0  0  0  0
   -0.5645    0.1126    0.1294 N   0  0  0  0  0  0  0  0  0  0  0  0
    0.8312   -0.0125   -0.1124 C   0  0  0  0  0  0  0  0  0  0  0  0
    1.3508    0.1871   -1.3757 C   0  0  0  0  0  0  0  0  0  0  0  0
    2.7100    0.0708   -1.6375 C   0  0  0  0  0  0  0  0  0  0  0  0
    3.5924   -0.2520   -0.6292 C   0  0  0  0  0  0  0  0  0  0  0  0
    5.2976   -0.3873   -1.0084 Cl  0  0  0  0  0  0  0  0  0  0  0  0
    3.0850   -0.4519    0.6285 C   0  0  0  0  0  0  0  0  0  0  0  0
    1.7327   -0.3347    0.8823 C   0  0  0  0  0  0  0  0  0  0  0  0
  1  2  1  0
  2  3  1  0
  2  4  1  0
  4  5  2  0
  5  6  1  0
  5  7  1  0
  7  8  2  0
  8  9  1  0
  8 10  1  0
 10 11  1  0
 11 12  2  0
 12 13  1  0
 13 14  2  0
 14 15  1  0
 14 16  1  0
 16 17  2  0
 10  2  1  0
 17 11  1  0
M  END
>  <zinc_id>  (17) 
ZINC000000001233

>  <ortholog_name>  (17) 
DRTS_PLAFK

>  <gene_name>  (17) 
DRTS_PLAFK

>  <affinity>  (17) 
6.24

>  <chembldocid>  (17) 
17071

>  <title>  (17) 
None

>  <reference.pubmed_id>  (17) 
12825927

>  <reference.doi>  (17) 
None

>  <reference.chembl_id>  (17) 
CHEMBL1145823

>  <reference.journal>  (17) 
J. Med. Chem.

>  <reference.year>  (17) 
2003

$$$$

     RDKit          3D

 17 18  0  0  0  0  0  0  0  0999 V2000
   -1.0025   -2.1511    0.9334 C   0  0  0  0  0  0  0  0  0  0  0  0
   -1.4357   -1.0245    0.0019 C   0  0  0  0  0  0  0  0  0  0  0  0
   -1.3642   -1.5878   -1.4247 C   0  0  0  0  0  0  0  0  0  0  0  0
   -2.8163   -0.7210    0.2822 N   0  0  0  0  0  0  0  0  0  0  0  0
   -3.1979    0.4475    0.6080 C   0  0  0  0  0  0  0  0  0  0  0  0
   -4.5950    0.6922    0.8774 N   0  0  0  0  0  0  0  0  0  0  0  0
   -2.3494    1.5793    0.7377 N   0  0  0  0  0  0  0  0  0  0  0  0
   -1.0957    1.3669    0.4976 C   0  0  0  0  0  0  0  0  0  0  0  0
   -0.1784    2.4665    0.6094 N   0  0  0  0  0  0  0  0  0  0  0  0
   -0.5645    0.1126    0.1294 N   0  0  0  0  0  0  0  0  0  0  0  0
    0.8312   -0.0125   -0.1124 C   0  0  0  0  0  0  0  0  0  0  0  0
    1.3508    0.1871   -1.3757 C   0  0  0  0  0  0  0  0  0  0  0  0
    2.7100    0.0708   -1.6375 C   0  0  0  0  0  0  0  0  0  0  0  0
    3.5924   -0.2520   -0.6292 C   0  0  0  0  0  0  0  0  0  0  0  0
    5.2976   -0.3873   -1.0084 Cl  0  0  0  0  0  0  0  0  0  0  0  0
    3.0850   -0.4519    0.6285 C   0  0  0  0  0  0  0  0  0  0  0  0
    1.7327   -0.3347    0.8823 C   0  0  0  0  0  0  0  0  0  0  0  0
  1  2  1  0
  2  3  1  0
  2  4  1  0
  4  5  2  0
  5  6  1  0
  5  7  1  0
  7  8  2  0
  8  9  1  0
  8 10  1  0
 10 11  1  0
 11 12  2  0
 12 13  1  0
 13 14  2  0
 14 15  1  0
 14 16  1  0
 16 17  2  0
 10  2  1  0
 17 11  1  0
M  END
>  <zinc_id>  (18) 
ZINC000000001233

>  <ortholog_name>  (18) 
DRTS_PLAFK

>  <gene_name>  (18) 
DRTS_PLAFK

>  <affinity>  (18) 
5.24

>  <chembldocid>  (18) 
17662

>  <title>  (18) 
None

>  <reference.pubmed_id>  (18) 
14736247

>  <reference.doi>  (18) 
None

>  <reference.chembl_id>  (18) 
CHEMBL1138835

>  <reference.journal>  (18) 
J. Med. Chem.

>  <reference.year>  (18) 
2004

$$$$

     RDKit          3D

 17 18  0  0  0  0  0  0  0  0999 V2000
   -1.0025   -2.1511    0.9334 C   0  0  0  0  0  0  0  0  0  0  0  0
   -1.4357   -1.0245    0.0019 C   0  0  0  0  0  0  0  0  0  0  0  0
   -1.3642   -1.5878   -1.4247 C   0  0  0  0  0  0  0  0  0  0  0  0
   -2.8163   -0.7210    0.2822 N   0  0  0  0  0  0  0  0  0  0  0  0
   -3.1979    0.4475    0.6080 C   0  0  0  0  0  0  0  0  0  0  0  0
   -4.5950    0.6922    0.8774 N   0  0  0  0  0  0  0  0  0  0  0  0
   -2.3494    1.5793    0.7377 N   0  0  0  0  0  0  0  0  0  0  0  0
   -1.0957    1.3669    0.4976 C   0  0  0  0  0  0  0  0  0  0  0  0
   -0.1784    2.4665    0.6094 N   0  0  0  0  0  0  0  0  0  0  0  0
   -0.5645    0.1126    0.1294 N   0  0  0  0  0  0  0  0  0  0  0  0
    0.8312   -0.0125   -0.1124 C   0  0  0  0  0  0  0  0  0  0  0  0
    1.3508    0.1871   -1.3757 C   0  0  0  0  0  0  0  0  0  0  0  0
    2.7100    0.0708   -1.6375 C   0  0  0  0  0  0  0  0  0  0  0  0
    3.5924   -0.2520   -0.6292 C   0  0  0  0  0  0  0  0  0  0  0  0
    5.2976   -0.3873   -1.0084 Cl  0  0  0  0  0  0  0  0  0  0  0  0
    3.0850   -0.4519    0.6285 C   0  0  0  0  0  0  0  0  0  0  0  0
    1.7327   -0.3347    0.8823 C   0  0  0  0  0  0  0  0  0  0  0  0
  1  2  1  0
  2  3  1  0
  2  4  1  0
  4  5  2  0
  5  6  1  0
  5  7  1  0
  7  8  2  0
  8  9  1  0
  8 10  1  0
 10 11  1  0
 11 12  2  0
 12 13  1  0
 13 14  2  0
 14 15  1  0
 14 16  1  0
 16 17  2  0
 10  2  1  0
 17 11  1  0
M  END
>  <zinc_id>  (19) 
ZINC000000001233

>  <ortholog_name>  (19) 
DRTS_PLAFK

>  <gene_name>  (19) 
DRTS_PLAFK

>  <affinity>  (19) 
6.14

>  <chembldocid>  (19) 
17071

>  <title>  (19) 
None

>  <reference.pubmed_id>  (19) 
12825927

>  <reference.doi>  (19) 
None

>  <reference.chembl_id>  (19) 
CHEMBL1145823

>  <reference.journal>  (19) 
J. Med. Chem.

>  <reference.year>  (19) 
2003

$$$$

     RDKit          3D

 17 18  0  0  0  0  0  0  0  0999 V2000
   -1.0025   -2.1511    0.9334 C   0  0  0  0  0  0  0  0  0  0  0  0
   -1.4357   -1.0245    0.0019 C   0  0  0  0  0  0  0  0  0  0  0  0
   -1.3642   -1.5878   -1.4247 C   0  0  0  0  0  0  0  0  0  0  0  0
   -2.8163   -0.7210    0.2822 N   0  0  0  0  0  0  0  0  0  0  0  0
   -3.1979    0.4475    0.6080 C   0  0  0  0  0  0  0  0  0  0  0  0
   -4.5950    0.6922    0.8774 N   0  0  0  0  0  0  0  0  0  0  0  0
   -2.3494    1.5793    0.7377 N   0  0  0  0  0  0  0  0  0  0  0  0
   -1.0957    1.3669    0.4976 C   0  0  0  0  0  0  0  0  0  0  0  0
   -0.1784    2.4665    0.6094 N   0  0  0  0  0  0  0  0  0  0  0  0
   -0.5645    0.1126    0.1294 N   0  0  0  0  0  0  0  0  0  0  0  0
    0.8312   -0.0125   -0.1124 C   0  0  0  0  0  0  0  0  0  0  0  0
    1.3508    0.1871   -1.3757 C   0  0  0  0  0  0  0  0  0  0  0  0
    2.7100    0.0708   -1.6375 C   0  0  0  0  0  0  0  0  0  0  0  0
    3.5924   -0.2520   -0.6292 C   0  0  0  0  0  0  0  0  0  0  0  0
    5.2976   -0.3873   -1.0084 Cl  0  0  0  0  0  0  0  0  0  0  0  0
    3.0850   -0.4519    0.6285 C   0  0  0  0  0  0  0  0  0  0  0  0
    1.7327   -0.3347    0.8823 C   0  0  0  0  0  0  0  0  0  0  0  0
  1  2  1  0
  2  3  1  0
  2  4  1  0
  4  5  2  0
  5  6  1  0
  5  7  1  0
  7  8  2  0
  8  9  1  0
  8 10  1  0
 10 11  1  0
 11 12  2  0
 12 13  1  0
 13 14  2  0
 14 15  1  0
 14 16  1  0
 16 17  2  0
 10  2  1  0
 17 11  1  0
M  END
>  <zinc_id>  (20) 
ZINC000000001233

>  <ortholog_name>  (20) 
DRTS_PLAFK

>  <gene_name>  (20) 
DRTS_PLAFK

>  <affinity>  (20) 
7.09

>  <chembldocid>  (20) 
14888

>  <title>  (20) 
None

>  <reference.pubmed_id>  (20) 
9554869

>  <reference.doi>  (20) 
None

>  <reference.chembl_id>  (20) 
CHEMBL1131602

>  <reference.journal>  (20) 
J. Med. Chem.

>  <reference.year>  (20) 
1998

$$$$

     RDKit          3D

 18 19  0  0  0  0  0  0  0  0999 V2000
   -0.3371   -3.1409   -0.0986 C   0  0  0  0  0  0  0  0  0  0  0  0
   -0.8273   -2.2138    0.9845 C   0  0  0  0  0  0  0  0  0  0  0  0
   -1.5444   -1.0351    0.4549 C   0  0  0  0  0  0  0  0  0  0  0  0
   -2.8938   -0.9793    0.5067 N   0  0  0  0  0  0  0  0  0  0  0  0
   -3.5690    0.0938    0.0119 C   0  0  0  0  0  0  0  0  0  0  0  0
   -4.9924    0.1888    0.0513 N   0  0  0  0  0  0  0  0  0  0  0  0
   -2.9099    1.1195   -0.5377 N   0  0  0  0  0  0  0  0  0  0  0  0
   -1.5791    1.0780   -0.5954 C   0  0  0  0  0  0  0  0  0  0  0  0
   -0.8727    2.1610   -1.1668 N   0  0  0  0  0  0  0  0  0  0  0  0
   -0.8636    0.0116   -0.1063 C   0  0  0  0  0  0  0  0  0  0  0  0
    0.5780    0.0318   -0.1940 C   0  0  0  0  0  0  0  0  0  0  0  0
    1.2222   -0.8469   -1.0143 C   0  0  0  0  0  0  0  0  0  0  0  0
    2.5938   -0.8167   -1.1333 C   0  0  0  0  0  0  0  0  0  0  0  0
    3.3334    0.0969   -0.4279 C   0  0  0  0  0  0  0  0  0  0  0  0
    5.0683    0.1255   -0.6069 Cl  0  0  0  0  0  0  0  0  0  0  0  0
    2.7092    0.9870    0.4020 C   0  0  0  0  0  0  0  0  0  0  0  0
    3.5678    2.1884    1.3221 Cl  0  0  0  0  0  0  0  0  0  0  0  0
    1.3167    0.9505    0.5165 C   0  0  0  0  0  0  0  0  0  0  0  0
  1  2  1  0
  2  3  1  0
  3  4  2  0
  4  5  1  0
  5  6  1  0
  5  7  2  0
  7  8  1  0
  8  9  1  0
  8 10  2  0
 10 11  1  0
 11 12  2  0
 12 13  1  0
 13 14  2  0
 14 15  1  0
 14 16  1  0
 16 17  1  0
 16 18  2  0
 10  3  1  0
 18 11  1  0
M  END
>  <zinc_id>  (21) 
ZINC000000001409

>  <ortholog_name>  (21) 
DRTS_PLAFK

>  <gene_name>  (21) 
DRTS_PLAFK

>  <affinity>  (21) 
9.10

>  <chembldocid>  (21) 
21047

>  <title>  (21) 
None

>  <reference.pubmed_id>  (21) 
15293997

>  <reference.doi>  (21) 
None

>  <reference.chembl_id>  (21) 
CHEMBL1138679

>  <reference.journal>  (21) 
J. Med. Chem.

>  <reference.year>  (21) 
2004

$$$$

     RDKit          3D

 18 19  0  0  0  0  0  0  0  0999 V2000
   -0.3371   -3.1409   -0.0986 C   0  0  0  0  0  0  0  0  0  0  0  0
   -0.8273   -2.2138    0.9845 C   0  0  0  0  0  0  0  0  0  0  0  0
   -1.5444   -1.0351    0.4549 C   0  0  0  0  0  0  0  0  0  0  0  0
   -2.8938   -0.9793    0.5067 N   0  0  0  0  0  0  0  0  0  0  0  0
   -3.5690    0.0938    0.0119 C   0  0  0  0  0  0  0  0  0  0  0  0
   -4.9924    0.1888    0.0513 N   0  0  0  0  0  0  0  0  0  0  0  0
   -2.9099    1.1195   -0.5377 N   0  0  0  0  0  0  0  0  0  0  0  0
   -1.5791    1.0780   -0.5954 C   0  0  0  0  0  0  0  0  0  0  0  0
   -0.8727    2.1610   -1.1668 N   0  0  0  0  0  0  0  0  0  0  0  0
   -0.8636    0.0116   -0.1063 C   0  0  0  0  0  0  0  0  0  0  0  0
    0.5780    0.0318   -0.1940 C   0  0  0  0  0  0  0  0  0  0  0  0
    1.2222   -0.8469   -1.0143 C   0  0  0  0  0  0  0  0  0  0  0  0
    2.5938   -0.8167   -1.1333 C   0  0  0  0  0  0  0  0  0  0  0  0
    3.3334    0.0969   -0.4279 C   0  0  0  0  0  0  0  0  0  0  0  0
    5.0683    0.1255   -0.6069 Cl  0  0  0  0  0  0  0  0  0  0  0  0
    2.7092    0.9870    0.4020 C   0  0  0  0  0  0  0  0  0  0  0  0
    3.5678    2.1884    1.3221 Cl  0  0  0  0  0  0  0  0  0  0  0  0
    1.3167    0.9505    0.5165 C   0  0  0  0  0  0  0  0  0  0  0  0
  1  2  1  0
  2  3  1  0
  3  4  2  0
  4  5  1  0
  5  6  1  0
  5  7  2  0
  7  8  1  0
  8  9  1  0
  8 10  2  0
 10 11  1  0
 11 12  2  0
 12 13  1  0
 13 14  2  0
 14 15  1  0
 14 16  1  0
 16 17  1  0
 16 18  2  0
 10  3  1  0
 18 11  1  0
M  END
>  <zinc_id>  (22) 
ZINC000000001409

>  <ortholog_name>  (22) 
DRTS_PLAFK

>  <gene_name>  (22) 
DRTS_PLAFK

>  <affinity>  (22) 
9.00

>  <chembldocid>  (22) 
16871

>  <title>  (22) 
None

>  <reference.pubmed_id>  (22) 
11881993

>  <reference.doi>  (22) 
None

>  <reference.chembl_id>  (22) 
CHEMBL1135602

>  <reference.journal>  (22) 
J. Med. Chem.

>  <reference.year>  (22) 
2002

$$$$

     RDKit          3D

 18 19  0  0  0  0  0  0  0  0999 V2000
   -0.3371   -3.1409   -0.0986 C   0  0  0  0  0  0  0  0  0  0  0  0
   -0.8273   -2.2138    0.9845 C   0  0  0  0  0  0  0  0  0  0  0  0
   -1.5444   -1.0351    0.4549 C   0  0  0  0  0  0  0  0  0  0  0  0
   -2.8938   -0.9793    0.5067 N   0  0  0  0  0  0  0  0  0  0  0  0
   -3.5690    0.0938    0.0119 C   0  0  0  0  0  0  0  0  0  0  0  0
   -4.9924    0.1888    0.0513 N   0  0  0  0  0  0  0  0  0  0  0  0
   -2.9099    1.1195   -0.5377 N   0  0  0  0  0  0  0  0  0  0  0  0
   -1.5791    1.0780   -0.5954 C   0  0  0  0  0  0  0  0  0  0  0  0
   -0.8727    2.1610   -1.1668 N   0  0  0  0  0  0  0  0  0  0  0  0
   -0.8636    0.0116   -0.1063 C   0  0  0  0  0  0  0  0  0  0  0  0
    0.5780    0.0318   -0.1940 C   0  0  0  0  0  0  0  0  0  0  0  0
    1.2222   -0.8469   -1.0143 C   0  0  0  0  0  0  0  0  0  0  0  0
    2.5938   -0.8167   -1.1333 C   0  0  0  0  0  0  0  0  0  0  0  0
    3.3334    0.0969   -0.4279 C   0  0  0  0  0  0  0  0  0  0  0  0
    5.0683    0.1255   -0.6069 Cl  0  0  0  0  0  0  0  0  0  0  0  0
    2.7092    0.9870    0.4020 C   0  0  0  0  0  0  0  0  0  0  0  0
    3.5678    2.1884    1.3221 Cl  0  0  0  0  0  0  0  0  0  0  0  0
    1.3167    0.9505    0.5165 C   0  0  0  0  0  0  0  0  0  0  0  0
  1  2  1  0
  2  3  1  0
  3  4  2  0
  4  5  1  0
  5  6  1  0
  5  7  2  0
  7  8  1  0
  8  9  1  0
  8 10  2  0
 10 11  1  0
 11 12  2  0
 12 13  1  0
 13 14  2  0
 14 15  1  0
 14 16  1  0
 16 17  1  0
 16 18  2  0
 10  3  1  0
 18 11  1  0
M  END
>  <zinc_id>  (23) 
ZINC000000001409

>  <ortholog_name>  (23) 
DRTS_PLAFK

>  <gene_name>  (23) 
DRTS_PLAFK

>  <affinity>  (23) 
9.00

>  <chembldocid>  (23) 
17662

>  <title>  (23) 
None

>  <reference.pubmed_id>  (23) 
14736247

>  <reference.doi>  (23) 
None

>  <reference.chembl_id>  (23) 
CHEMBL1138835

>  <reference.journal>  (23) 
J. Med. Chem.

>  <reference.year>  (23) 
2004

$$$$

     RDKit          3D

 18 19  0  0  0  0  0  0  0  0999 V2000
   -0.3371   -3.1409   -0.0986 C   0  0  0  0  0  0  0  0  0  0  0  0
   -0.8273   -2.2138    0.9845 C   0  0  0  0  0  0  0  0  0  0  0  0
   -1.5444   -1.0351    0.4549 C   0  0  0  0  0  0  0  0  0  0  0  0
   -2.8938   -0.9793    0.5067 N   0  0  0  0  0  0  0  0  0  0  0  0
   -3.5690    0.0938    0.0119 C   0  0  0  0  0  0  0  0  0  0  0  0
   -4.9924    0.1888    0.0513 N   0  0  0  0  0  0  0  0  0  0  0  0
   -2.9099    1.1195   -0.5377 N   0  0  0  0  0  0  0  0  0  0  0  0
   -1.5791    1.0780   -0.5954 C   0  0  0  0  0  0  0  0  0  0  0  0
   -0.8727    2.1610   -1.1668 N   0  0  0  0  0  0  0  0  0  0  0  0
   -0.8636    0.0116   -0.1063 C   0  0  0  0  0  0  0  0  0  0  0  0
    0.5780    0.0318   -0.1940 C   0  0  0  0  0  0  0  0  0  0  0  0
    1.2222   -0.8469   -1.0143 C   0  0  0  0  0  0  0  0  0  0  0  0
    2.5938   -0.8167   -1.1333 C   0  0  0  0  0  0  0  0  0  0  0  0
    3.3334    0.0969   -0.4279 C   0  0  0  0  0  0  0  0  0  0  0  0
    5.0683    0.1255   -0.6069 Cl  0  0  0  0  0  0  0  0  0  0  0  0
    2.7092    0.9870    0.4020 C   0  0  0  0  0  0  0  0  0  0  0  0
    3.5678    2.1884    1.3221 Cl  0  0  0  0  0  0  0  0  0  0  0  0
    1.3167    0.9505    0.5165 C   0  0  0  0  0  0  0  0  0  0  0  0
  1  2  1  0
  2  3  1  0
  3  4  2  0
  4  5  1  0
  5  6  1  0
  5  7  2  0
  7  8  1  0
  8  9  1  0
  8 10  2  0
 10 11  1  0
 11 12  2  0
 12 13  1  0
 13 14  2  0
 14 15  1  0
 14 16  1  0
 16 17  1  0
 16 18  2  0
 10  3  1  0
 18 11  1  0
M  END
>  <zinc_id>  (24) 
ZINC000000001409

>  <ortholog_name>  (24) 
DRTS_PLAFK

>  <gene_name>  (24) 
DRTS_PLAFK

>  <affinity>  (24) 
7.90

>  <chembldocid>  (24) 
16871

>  <title>  (24) 
None

>  <reference.pubmed_id>  (24) 
11881993

>  <reference.doi>  (24) 
None

>  <reference.chembl_id>  (24) 
CHEMBL1135602

>  <reference.journal>  (24) 
J. Med. Chem.

>  <reference.year>  (24) 
2002

$$$$

     RDKit          3D

 18 19  0  0  0  0  0  0  0  0999 V2000
   -0.3371   -3.1409   -0.0986 C   0  0  0  0  0  0  0  0  0  0  0  0
   -0.8273   -2.2138    0.9845 C   0  0  0  0  0  0  0  0  0  0  0  0
   -1.5444   -1.0351    0.4549 C   0  0  0  0  0  0  0  0  0  0  0  0
   -2.8938   -0.9793    0.5067 N   0  0  0  0  0  0  0  0  0  0  0  0
   -3.5690    0.0938    0.0119 C   0  0  0  0  0  0  0  0  0  0  0  0
   -4.9924    0.1888    0.0513 N   0  0  0  0  0  0  0  0  0  0  0  0
   -2.9099    1.1195   -0.5377 N   0  0  0  0  0  0  0  0  0  0  0  0
   -1.5791    1.0780   -0.5954 C   0  0  0  0  0  0  0  0  0  0  0  0
   -0.8727    2.1610   -1.1668 N   0  0  0  0  0  0  0  0  0  0  0  0
   -0.8636    0.0116   -0.1063 C   0  0  0  0  0  0  0  0  0  0  0  0
    0.5780    0.0318   -0.1940 C   0  0  0  0  0  0  0  0  0  0  0  0
    1.2222   -0.8469   -1.0143 C   0  0  0  0  0  0  0  0  0  0  0  0
    2.5938   -0.8167   -1.1333 C   0  0  0  0  0  0  0  0  0  0  0  0
    3.3334    0.0969   -0.4279 C   0  0  0  0  0  0  0  0  0  0  0  0
    5.0683    0.1255   -0.6069 Cl  0  0  0  0  0  0  0  0  0  0  0  0
    2.7092    0.9870    0.4020 C   0  0  0  0  0  0  0  0  0  0  0  0
    3.5678    2.1884    1.3221 Cl  0  0  0  0  0  0  0  0  0  0  0  0
    1.3167    0.9505    0.5165 C   0  0  0  0  0  0  0  0  0  0  0  0
  1  2  1  0
  2  3  1  0
  3  4  2  0
  4  5  1  0
  5  6  1  0
  5  7  2  0
  7  8  1  0
  8  9  1  0
  8 10  2  0
 10 11  1  0
 11 12  2  0
 12 13  1  0
 13 14  2  0
 14 15  1  0
 14 16  1  0
 16 17  1  0
 16 18  2  0
 10  3  1  0
 18 11  1  0
M  END
>  <zinc_id>  (25) 
ZINC000000001409

>  <ortholog_name>  (25) 
DRTS_PLAFK

>  <gene_name>  (25) 
DRTS_PLAFK

>  <affinity>  (25) 
8.51

>  <chembldocid>  (25) 
17662

>  <title>  (25) 
None

>  <reference.pubmed_id>  (25) 
14736247

>  <reference.doi>  (25) 
None

>  <reference.chembl_id>  (25) 
CHEMBL1138835

>  <reference.journal>  (25) 
J. Med. Chem.

>  <reference.year>  (25) 
2004

$$$$

     RDKit          3D

 18 19  0  0  0  0  0  0  0  0999 V2000
   -0.3371   -3.1409   -0.0986 C   0  0  0  0  0  0  0  0  0  0  0  0
   -0.8273   -2.2138    0.9845 C   0  0  0  0  0  0  0  0  0  0  0  0
   -1.5444   -1.0351    0.4549 C   0  0  0  0  0  0  0  0  0  0  0  0
   -2.8938   -0.9793    0.5067 N   0  0  0  0  0  0  0  0  0  0  0  0
   -3.5690    0.0938    0.0119 C   0  0  0  0  0  0  0  0  0  0  0  0
   -4.9924    0.1888    0.0513 N   0  0  0  0  0  0  0  0  0  0  0  0
   -2.9099    1.1195   -0.5377 N   0  0  0  0  0  0  0  0  0  0  0  0
   -1.5791    1.0780   -0.5954 C   0  0  0  0  0  0  0  0  0  0  0  0
   -0.8727    2.1610   -1.1668 N   0  0  0  0  0  0  0  0  0  0  0  0
   -0.8636    0.0116   -0.1063 C   0  0  0  0  0  0  0  0  0  0  0  0
    0.5780    0.0318   -0.1940 C   0  0  0  0  0  0  0  0  0  0  0  0
    1.2222   -0.8469   -1.0143 C   0  0  0  0  0  0  0  0  0  0  0  0
    2.5938   -0.8167   -1.1333 C   0  0  0  0  0  0  0  0  0  0  0  0
    3.3334    0.0969   -0.4279 C   0  0  0  0  0  0  0  0  0  0  0  0
    5.0683    0.1255   -0.6069 Cl  0  0  0  0  0  0  0  0  0  0  0  0
    2.7092    0.9870    0.4020 C   0  0  0  0  0  0  0  0  0  0  0  0
    3.5678    2.1884    1.3221 Cl  0  0  0  0  0  0  0  0  0  0  0  0
    1.3167    0.9505    0.5165 C   0  0  0  0  0  0  0  0  0  0  0  0
  1  2  1  0
  2  3  1  0
  3  4  2  0
  4  5  1  0
  5  6  1  0
  5  7  2  0
  7  8  1  0
  8  9  1  0
  8 10  2  0
 10 11  1  0
 11 12  2  0
 12 13  1  0
 13 14  2  0
 14 15  1  0
 14 16  1  0
 16 17  1  0
 16 18  2  0
 10  3  1  0
 18 11  1  0
M  END
>  <zinc_id>  (26) 
ZINC000000001409

>  <ortholog_name>  (26) 
DRTS_PLAFK

>  <gene_name>  (26) 
DRTS_PLAFK

>  <affinity>  (26) 
7.39

>  <chembldocid>  (26) 
17662

>  <title>  (26) 
None

>  <reference.pubmed_id>  (26) 
14736247

>  <reference.doi>  (26) 
None

>  <reference.chembl_id>  (26) 
CHEMBL1138835

>  <reference.journal>  (26) 
J. Med. Chem.

>  <reference.year>  (26) 
2004

$$$$

     RDKit          3D

 18 19  0  0  0  0  0  0  0  0999 V2000
   -0.3371   -3.1409   -0.0986 C   0  0  0  0  0  0  0  0  0  0  0  0
   -0.8273   -2.2138    0.9845 C   0  0  0  0  0  0  0  0  0  0  0  0
   -1.5444   -1.0351    0.4549 C   0  0  0  0  0  0  0  0  0  0  0  0
   -2.8938   -0.9793    0.5067 N   0  0  0  0  0  0  0  0  0  0  0  0
   -3.5690    0.0938    0.0119 C   0  0  0  0  0  0  0  0  0  0  0  0
   -4.9924    0.1888    0.0513 N   0  0  0  0  0  0  0  0  0  0  0  0
   -2.9099    1.1195   -0.5377 N   0  0  0  0  0  0  0  0  0  0  0  0
   -1.5791    1.0780   -0.5954 C   0  0  0  0  0  0  0  0  0  0  0  0
   -0.8727    2.1610   -1.1668 N   0  0  0  0  0  0  0  0  0  0  0  0
   -0.8636    0.0116   -0.1063 C   0  0  0  0  0  0  0  0  0  0  0  0
    0.5780    0.0318   -0.1940 C   0  0  0  0  0  0  0  0  0  0  0  0
    1.2222   -0.8469   -1.0143 C   0  0  0  0  0  0  0  0  0  0  0  0
    2.5938   -0.8167   -1.1333 C   0  0  0  0  0  0  0  0  0  0  0  0
    3.3334    0.0969   -0.4279 C   0  0  0  0  0  0  0  0  0  0  0  0
    5.0683    0.1255   -0.6069 Cl  0  0  0  0  0  0  0  0  0  0  0  0
    2.7092    0.9870    0.4020 C   0  0  0  0  0  0  0  0  0  0  0  0
    3.5678    2.1884    1.3221 Cl  0  0  0  0  0  0  0  0  0  0  0  0
    1.3167    0.9505    0.5165 C   0  0  0  0  0  0  0  0  0  0  0  0
  1  2  1  0
  2  3  1  0
  3  4  2  0
  4  5  1  0
  5  6  1  0
  5  7  2  0
  7  8  1  0
  8  9  1  0
  8 10  2  0
 10 11  1  0
 11 12  2  0
 12 13  1  0
 13 14  2  0
 14 15  1  0
 14 16  1  0
 16 17  1  0
 16 18  2  0
 10  3  1  0
 18 11  1  0
M  END
>  <zinc_id>  (27) 
ZINC000000001409

>  <ortholog_name>  (27) 
DRTS_PLAFK

>  <gene_name>  (27) 
DRTS_PLAFK

>  <affinity>  (27) 
7.28

>  <chembldocid>  (27) 
17662

>  <title>  (27) 
None

>  <reference.pubmed_id>  (27) 
14736247

>  <reference.doi>  (27) 
None

>  <reference.chembl_id>  (27) 
CHEMBL1138835

>  <reference.journal>  (27) 
J. Med. Chem.

>  <reference.year>  (27) 
2004

$$$$

     RDKit          3D

 18 19  0  0  0  0  0  0  0  0999 V2000
   -0.3371   -3.1409   -0.0986 C   0  0  0  0  0  0  0  0  0  0  0  0
   -0.8273   -2.2138    0.9845 C   0  0  0  0  0  0  0  0  0  0  0  0
   -1.5444   -1.0351    0.4549 C   0  0  0  0  0  0  0  0  0  0  0  0
   -2.8938   -0.9793    0.5067 N   0  0  0  0  0  0  0  0  0  0  0  0
   -3.5690    0.0938    0.0119 C   0  0  0  0  0  0  0  0  0  0  0  0
   -4.9924    0.1888    0.0513 N   0  0  0  0  0  0  0  0  0  0  0  0
   -2.9099    1.1195   -0.5377 N   0  0  0  0  0  0  0  0  0  0  0  0
   -1.5791    1.0780   -0.5954 C   0  0  0  0  0  0  0  0  0  0  0  0
   -0.8727    2.1610   -1.1668 N   0  0  0  0  0  0  0  0  0  0  0  0
   -0.8636    0.0116   -0.1063 C   0  0  0  0  0  0  0  0  0  0  0  0
    0.5780    0.0318   -0.1940 C   0  0  0  0  0  0  0  0  0  0  0  0
    1.2222   -0.8469   -1.0143 C   0  0  0  0  0  0  0  0  0  0  0  0
    2.5938   -0.8167   -1.1333 C   0  0  0  0  0  0  0  0  0  0  0  0
    3.3334    0.0969   -0.4279 C   0  0  0  0  0  0  0  0  0  0  0  0
    5.0683    0.1255   -0.6069 Cl  0  0  0  0  0  0  0  0  0  0  0  0
    2.7092    0.9870    0.4020 C   0  0  0  0  0  0  0  0  0  0  0  0
    3.5678    2.1884    1.3221 Cl  0  0  0  0  0  0  0  0  0  0  0  0
    1.3167    0.9505    0.5165 C   0  0  0  0  0  0  0  0  0  0  0  0
  1  2  1  0
  2  3  1  0
  3  4  2  0
  4  5  1  0
  5  6  1  0
  5  7  2  0
  7  8  1  0
  8  9  1  0
  8 10  2  0
 10 11  1  0
 11 12  2  0
 12 13  1  0
 13 14  2  0
 14 15  1  0
 14 16  1  0
 16 17  1  0
 16 18  2  0
 10  3  1  0
 18 11  1  0
M  END
>  <zinc_id>  (28) 
ZINC000000001409

>  <ortholog_name>  (28) 
DRTS_PLAFK

>  <gene_name>  (28) 
DRTS_PLAFK

>  <affinity>  (28) 
8.05

>  <chembldocid>  (28) 
16871

>  <title>  (28) 
None

>  <reference.pubmed_id>  (28) 
11881993

>  <reference.doi>  (28) 
None

>  <reference.chembl_id>  (28) 
CHEMBL1135602

>  <reference.journal>  (28) 
J. Med. Chem.

>  <reference.year>  (28) 
2002

$$$$

     RDKit          3D

 25 27  0  0  0  0  0  0  0  0999 V2000
   -0.4079   -1.3104   -4.0065 C   0  0  0  0  0  0  0  0  0  0  0  0
   -1.0927   -0.4915   -3.0755 O   0  0  0  0  0  0  0  0  0  0  0  0
   -0.7410   -0.3914   -1.7517 C   0  0  0  0  0  0  0  0  0  0  0  0
    0.3267   -1.0892   -1.1949 C   0  0  0  0  0  0  0  0  0  0  0  0
    0.6274   -0.9445    0.1410 C   0  0  0  0  0  0  0  0  0  0  0  0
    1.7570   -1.6903    0.7128 C   0  0  0  0  0  0  0  0  0  0  0  0
    3.0509   -0.9641    0.6375 C   0  0  0  0  0  0  0  0  0  0  0  0
    3.5882   -0.3519    1.7639 C   0  0  0  0  0  0  0  0  0  0  0  0
    4.7596    0.3047    1.6865 N   0  0  0  0  0  0  0  0  0  0  0  0
    5.4645    0.4082    0.5491 C   0  0  0  0  0  0  0  0  0  0  0  0
    6.7089    1.1196    0.5073 N   0  0  0  0  0  0  0  0  0  0  0  0
    4.9496   -0.1821   -0.5433 N   0  0  0  0  0  0  0  0  0  0  0  0
    3.7760   -0.8575   -0.5307 C   0  0  0  0  0  0  0  0  0  0  0  0
    3.2456   -1.4758   -1.6971 N   0  0  0  0  0  0  0  0  0  0  0  0
   -0.1332   -0.0958    0.9572 C   0  0  0  0  0  0  0  0  0  0  0  0
   -1.1933    0.5913    0.3854 C   0  0  0  0  0  0  0  0  0  0  0  0
   -1.4918    0.4439   -0.9532 C   0  0  0  0  0  0  0  0  0  0  0  0
   -2.5668    1.1598   -1.4662 O   0  0  0  0  0  0  0  0  0  0  0  0
   -3.3510    2.0185   -0.6531 C   0  0  0  0  0  0  0  0  0  0  0  0
   -3.9652    1.2059    0.4205 C   0  0  0  0  0  0  0  0  0  0  0  0
   -4.5720    1.7819    1.5290 C   0  0  0  0  0  0  0  0  0  0  0  0
   -5.1357    0.9939    2.4998 C   0  0  0  0  0  0  0  0  0  0  0  0
   -5.1276   -0.3735    2.4247 C   0  0  0  0  0  0  0  0  0  0  0  0
   -4.5235   -0.9327    1.3217 C   0  0  0  0  0  0  0  0  0  0  0  0
   -3.9525   -0.1889    0.3358 C   0  0  0  0  0  0  0  0  0  0  0  0
  1  2  1  0
  2  3  1  0
  3  4  2  0
  4  5  1  0
  5  6  1  0
  6  7  1  0
  7  8  2  0
  8  9  1  0
  9 10  2  0
 10 11  1  0
 10 12  1  0
 12 13  2  0
 13 14  1  0
  5 15  2  0
 15 16  1  0
 16 17  2  0
 17 18  1  0
 18 19  1  0
 19 20  1  0
 20 21  2  0
 21 22  1  0
 22 23  2  0
 23 24  1  0
 24 25  2  0
 17  3  1  0
 25 20  1  0
 13  7  1  0
M  END
>  <zinc_id>  (29) 
ZINC000000010466

>  <ortholog_name>  (29) 
DRTS_PLAFK

>  <gene_name>  (29) 
DRTS_PLAFK

>  <affinity>  (29) 
5.86

>  <chembldocid>  (29) 
17636

>  <title>  (29) 
None

>  <reference.pubmed_id>  (29) 
14711307

>  <reference.doi>  (29) 
None

>  <reference.chembl_id>  (29) 
CHEMBL1148379

>  <reference.journal>  (29) 
J. Med. Chem.

>  <reference.year>  (29) 
2004

$$$$

     RDKit          3D

 25 27  0  0  0  0  0  0  0  0999 V2000
   -0.4079   -1.3104   -4.0065 C   0  0  0  0  0  0  0  0  0  0  0  0
   -1.0927   -0.4915   -3.0755 O   0  0  0  0  0  0  0  0  0  0  0  0
   -0.7410   -0.3914   -1.7517 C   0  0  0  0  0  0  0  0  0  0  0  0
    0.3267   -1.0892   -1.1949 C   0  0  0  0  0  0  0  0  0  0  0  0
    0.6274   -0.9445    0.1410 C   0  0  0  0  0  0  0  0  0  0  0  0
    1.7570   -1.6903    0.7128 C   0  0  0  0  0  0  0  0  0  0  0  0
    3.0509   -0.9641    0.6375 C   0  0  0  0  0  0  0  0  0  0  0  0
    3.5882   -0.3519    1.7639 C   0  0  0  0  0  0  0  0  0  0  0  0
    4.7596    0.3047    1.6865 N   0  0  0  0  0  0  0  0  0  0  0  0
    5.4645    0.4082    0.5491 C   0  0  0  0  0  0  0  0  0  0  0  0
    6.7089    1.1196    0.5073 N   0  0  0  0  0  0  0  0  0  0  0  0
    4.9496   -0.1821   -0.5433 N   0  0  0  0  0  0  0  0  0  0  0  0
    3.7760   -0.8575   -0.5307 C   0  0  0  0  0  0  0  0  0  0  0  0
    3.2456   -1.4758   -1.6971 N   0  0  0  0  0  0  0  0  0  0  0  0
   -0.1332   -0.0958    0.9572 C   0  0  0  0  0  0  0  0  0  0  0  0
   -1.1933    0.5913    0.3854 C   0  0  0  0  0  0  0  0  0  0  0  0
   -1.4918    0.4439   -0.9532 C   0  0  0  0  0  0  0  0  0  0  0  0
   -2.5668    1.1598   -1.4662 O   0  0  0  0  0  0  0  0  0  0  0  0
   -3.3510    2.0185   -0.6531 C   0  0  0  0  0  0  0  0  0  0  0  0
   -3.9652    1.2059    0.4205 C   0  0  0  0  0  0  0  0  0  0  0  0
   -4.5720    1.7819    1.5290 C   0  0  0  0  0  0  0  0  0  0  0  0
   -5.1357    0.9939    2.4998 C   0  0  0  0  0  0  0  0  0  0  0  0
   -5.1276   -0.3735    2.4247 C   0  0  0  0  0  0  0  0  0  0  0  0
   -4.5235   -0.9327    1.3217 C   0  0  0  0  0  0  0  0  0  0  0  0
   -3.9525   -0.1889    0.3358 C   0  0  0  0  0  0  0  0  0  0  0  0
  1  2  1  0
  2  3  1  0
  3  4  2  0
  4  5  1  0
  5  6  1  0
  6  7  1  0
  7  8  2  0
  8  9  1  0
  9 10  2  0
 10 11  1  0
 10 12  1  0
 12 13  2  0
 13 14  1  0
  5 15  2  0
 15 16  1  0
 16 17  2  0
 17 18  1  0
 18 19  1  0
 19 20  1  0
 20 21  2  0
 21 22  1  0
 22 23  2  0
 23 24  1  0
 24 25  2  0
 17  3  1  0
 25 20  1  0
 13  7  1  0
M  END
>  <zinc_id>  (30) 
ZINC000000010466

>  <ortholog_name>  (30) 
DRTS_PLAFK

>  <gene_name>  (30) 
DRTS_PLAFK

>  <affinity>  (30) 
6.72

>  <chembldocid>  (30) 
17636

>  <title>  (30) 
None

>  <reference.pubmed_id>  (30) 
14711307

>  <reference.doi>  (30) 
None

>  <reference.chembl_id>  (30) 
CHEMBL1148379

>  <reference.journal>  (30) 
J. Med. Chem.

>  <reference.year>  (30) 
2004

$$$$

     RDKit          3D

 25 27  0  0  0  0  0  0  0  0999 V2000
   -0.4079   -1.3104   -4.0065 C   0  0  0  0  0  0  0  0  0  0  0  0
   -1.0927   -0.4915   -3.0755 O   0  0  0  0  0  0  0  0  0  0  0  0
   -0.7410   -0.3914   -1.7517 C   0  0  0  0  0  0  0  0  0  0  0  0
    0.3267   -1.0892   -1.1949 C   0  0  0  0  0  0  0  0  0  0  0  0
    0.6274   -0.9445    0.1410 C   0  0  0  0  0  0  0  0  0  0  0  0
    1.7570   -1.6903    0.7128 C   0  0  0  0  0  0  0  0  0  0  0  0
    3.0509   -0.9641    0.6375 C   0  0  0  0  0  0  0  0  0  0  0  0
    3.5882   -0.3519    1.7639 C   0  0  0  0  0  0  0  0  0  0  0  0
    4.7596    0.3047    1.6865 N   0  0  0  0  0  0  0  0  0  0  0  0
    5.4645    0.4082    0.5491 C   0  0  0  0  0  0  0  0  0  0  0  0
    6.7089    1.1196    0.5073 N   0  0  0  0  0  0  0  0  0  0  0  0
    4.9496   -0.1821   -0.5433 N   0  0  0  0  0  0  0  0  0  0  0  0
    3.7760   -0.8575   -0.5307 C   0  0  0  0  0  0  0  0  0  0  0  0
    3.2456   -1.4758   -1.6971 N   0  0  0  0  0  0  0  0  0  0  0  0
   -0.1332   -0.0958    0.9572 C   0  0  0  0  0  0  0  0  0  0  0  0
   -1.1933    0.5913    0.3854 C   0  0  0  0  0  0  0  0  0  0  0  0
   -1.4918    0.4439   -0.9532 C   0  0  0  0  0  0  0  0  0  0  0  0
   -2.5668    1.1598   -1.4662 O   0  0  0  0  0  0  0  0  0  0  0  0
   -3.3510    2.0185   -0.6531 C   0  0  0  0  0  0  0  0  0  0  0  0
   -3.9652    1.2059    0.4205 C   0  0  0  0  0  0  0  0  0  0  0  0
   -4.5720    1.7819    1.5290 C   0  0  0  0  0  0  0  0  0  0  0  0
   -5.1357    0.9939    2.4998 C   0  0  0  0  0  0  0  0  0  0  0  0
   -5.1276   -0.3735    2.4247 C   0  0  0  0  0  0  0  0  0  0  0  0
   -4.5235   -0.9327    1.3217 C   0  0  0  0  0  0  0  0  0  0  0  0
   -3.9525   -0.1889    0.3358 C   0  0  0  0  0  0  0  0  0  0  0  0
  1  2  1  0
  2  3  1  0
  3  4  2  0
  4  5  1  0
  5  6  1  0
  6  7  1  0
  7  8  2  0
  8  9  1  0
  9 10  2  0
 10 11  1  0
 10 12  1  0
 12 13  2  0
 13 14  1  0
  5 15  2  0
 15 16  1  0
 16 17  2  0
 17 18  1  0
 18 19  1  0
 19 20  1  0
 20 21  2  0
 21 22  1  0
 22 23  2  0
 23 24  1  0
 24 25  2  0
 17  3  1  0
 25 20  1  0
 13  7  1  0
M  END
>  <zinc_id>  (31) 
ZINC000000010466

>  <ortholog_name>  (31) 
DRTS_PLAFK

>  <gene_name>  (31) 
DRTS_PLAFK

>  <affinity>  (31) 
5.70

>  <chembldocid>  (31) 
17636

>  <title>  (31) 
None

>  <reference.pubmed_id>  (31) 
14711307

>  <reference.doi>  (31) 
None

>  <reference.chembl_id>  (31) 
CHEMBL1148379

>  <reference.journal>  (31) 
J. Med. Chem.

>  <reference.year>  (31) 
2004

$$$$

     RDKit          3D

 25 27  0  0  0  0  0  0  0  0999 V2000
   -0.4079   -1.3104   -4.0065 C   0  0  0  0  0  0  0  0  0  0  0  0
   -1.0927   -0.4915   -3.0755 O   0  0  0  0  0  0  0  0  0  0  0  0
   -0.7410   -0.3914   -1.7517 C   0  0  0  0  0  0  0  0  0  0  0  0
    0.3267   -1.0892   -1.1949 C   0  0  0  0  0  0  0  0  0  0  0  0
    0.6274   -0.9445    0.1410 C   0  0  0  0  0  0  0  0  0  0  0  0
    1.7570   -1.6903    0.7128 C   0  0  0  0  0  0  0  0  0  0  0  0
    3.0509   -0.9641    0.6375 C   0  0  0  0  0  0  0  0  0  0  0  0
    3.5882   -0.3519    1.7639 C   0  0  0  0  0  0  0  0  0  0  0  0
    4.7596    0.3047    1.6865 N   0  0  0  0  0  0  0  0  0  0  0  0
    5.4645    0.4082    0.5491 C   0  0  0  0  0  0  0  0  0  0  0  0
    6.7089    1.1196    0.5073 N   0  0  0  0  0  0  0  0  0  0  0  0
    4.9496   -0.1821   -0.5433 N   0  0  0  0  0  0  0  0  0  0  0  0
    3.7760   -0.8575   -0.5307 C   0  0  0  0  0  0  0  0  0  0  0  0
    3.2456   -1.4758   -1.6971 N   0  0  0  0  0  0  0  0  0  0  0  0
   -0.1332   -0.0958    0.9572 C   0  0  0  0  0  0  0  0  0  0  0  0
   -1.1933    0.5913    0.3854 C   0  0  0  0  0  0  0  0  0  0  0  0
   -1.4918    0.4439   -0.9532 C   0  0  0  0  0  0  0  0  0  0  0  0
   -2.5668    1.1598   -1.4662 O   0  0  0  0  0  0  0  0  0  0  0  0
   -3.3510    2.0185   -0.6531 C   0  0  0  0  0  0  0  0  0  0  0  0
   -3.9652    1.2059    0.4205 C   0  0  0  0  0  0  0  0  0  0  0  0
   -4.5720    1.7819    1.5290 C   0  0  0  0  0  0  0  0  0  0  0  0
   -5.1357    0.9939    2.4998 C   0  0  0  0  0  0  0  0  0  0  0  0
   -5.1276   -0.3735    2.4247 C   0  0  0  0  0  0  0  0  0  0  0  0
   -4.5235   -0.9327    1.3217 C   0  0  0  0  0  0  0  0  0  0  0  0
   -3.9525   -0.1889    0.3358 C   0  0  0  0  0  0  0  0  0  0  0  0
  1  2  1  0
  2  3  1  0
  3  4  2  0
  4  5  1  0
  5  6  1  0
  6  7  1  0
  7  8  2  0
  8  9  1  0
  9 10  2  0
 10 11  1  0
 10 12  1  0
 12 13  2  0
 13 14  1  0
  5 15  2  0
 15 16  1  0
 16 17  2  0
 17 18  1  0
 18 19  1  0
 19 20  1  0
 20 21  2  0
 21 22  1  0
 22 23  2  0
 23 24  1  0
 24 25  2  0
 17  3  1  0
 25 20  1  0
 13  7  1  0
M  END
>  <zinc_id>  (32) 
ZINC000000010466

>  <ortholog_name>  (32) 
DRTS_PLAFK

>  <gene_name>  (32) 
DRTS_PLAFK

>  <affinity>  (32) 
8.66

>  <chembldocid>  (32) 
16871

>  <title>  (32) 
None

>  <reference.pubmed_id>  (32) 
11881993

>  <reference.doi>  (32) 
None

>  <reference.chembl_id>  (32) 
CHEMBL1135602

>  <reference.journal>  (32) 
J. Med. Chem.

>  <reference.year>  (32) 
2002

$$$$

     RDKit          3D

 25 27  0  0  0  0  0  0  0  0999 V2000
   -0.4079   -1.3104   -4.0065 C   0  0  0  0  0  0  0  0  0  0  0  0
   -1.0927   -0.4915   -3.0755 O   0  0  0  0  0  0  0  0  0  0  0  0
   -0.7410   -0.3914   -1.7517 C   0  0  0  0  0  0  0  0  0  0  0  0
    0.3267   -1.0892   -1.1949 C   0  0  0  0  0  0  0  0  0  0  0  0
    0.6274   -0.9445    0.1410 C   0  0  0  0  0  0  0  0  0  0  0  0
    1.7570   -1.6903    0.7128 C   0  0  0  0  0  0  0  0  0  0  0  0
    3.0509   -0.9641    0.6375 C   0  0  0  0  0  0  0  0  0  0  0  0
    3.5882   -0.3519    1.7639 C   0  0  0  0  0  0  0  0  0  0  0  0
    4.7596    0.3047    1.6865 N   0  0  0  0  0  0  0  0  0  0  0  0
    5.4645    0.4082    0.5491 C   0  0  0  0  0  0  0  0  0  0  0  0
    6.7089    1.1196    0.5073 N   0  0  0  0  0  0  0  0  0  0  0  0
    4.9496   -0.1821   -0.5433 N   0  0  0  0  0  0  0  0  0  0  0  0
    3.7760   -0.8575   -0.5307 C   0  0  0  0  0  0  0  0  0  0  0  0
    3.2456   -1.4758   -1.6971 N   0  0  0  0  0  0  0  0  0  0  0  0
   -0.1332   -0.0958    0.9572 C   0  0  0  0  0  0  0  0  0  0  0  0
   -1.1933    0.5913    0.3854 C   0  0  0  0  0  0  0  0  0  0  0  0
   -1.4918    0.4439   -0.9532 C   0  0  0  0  0  0  0  0  0  0  0  0
   -2.5668    1.1598   -1.4662 O   0  0  0  0  0  0  0  0  0  0  0  0
   -3.3510    2.0185   -0.6531 C   0  0  0  0  0  0  0  0  0  0  0  0
   -3.9652    1.2059    0.4205 C   0  0  0  0  0  0  0  0  0  0  0  0
   -4.5720    1.7819    1.5290 C   0  0  0  0  0  0  0  0  0  0  0  0
   -5.1357    0.9939    2.4998 C   0  0  0  0  0  0  0  0  0  0  0  0
   -5.1276   -0.3735    2.4247 C   0  0  0  0  0  0  0  0  0  0  0  0
   -4.5235   -0.9327    1.3217 C   0  0  0  0  0  0  0  0  0  0  0  0
   -3.9525   -0.1889    0.3358 C   0  0  0  0  0  0  0  0  0  0  0  0
  1  2  1  0
  2  3  1  0
  3  4  2  0
  4  5  1  0
  5  6  1  0
  6  7  1  0
  7  8  2  0
  8  9  1  0
  9 10  2  0
 10 11  1  0
 10 12  1  0
 12 13  2  0
 13 14  1  0
  5 15  2  0
 15 16  1  0
 16 17  2  0
 17 18  1  0
 18 19  1  0
 19 20  1  0
 20 21  2  0
 21 22  1  0
 22 23  2  0
 23 24  1  0
 24 25  2  0
 17  3  1  0
 25 20  1  0
 13  7  1  0
M  END
>  <zinc_id>  (33) 
ZINC000000010466

>  <ortholog_name>  (33) 
DRTS_PLAFK

>  <gene_name>  (33) 
DRTS_PLAFK

>  <affinity>  (33) 
8.66

>  <chembldocid>  (33) 
17636

>  <title>  (33) 
None

>  <reference.pubmed_id>  (33) 
14711307

>  <reference.doi>  (33) 
None

>  <reference.chembl_id>  (33) 
CHEMBL1148379

>  <reference.journal>  (33) 
J. Med. Chem.

>  <reference.year>  (33) 
2004

$$$$

     RDKit          3D

 25 27  0  0  0  0  0  0  0  0999 V2000
   -0.4079   -1.3104   -4.0065 C   0  0  0  0  0  0  0  0  0  0  0  0
   -1.0927   -0.4915   -3.0755 O   0  0  0  0  0  0  0  0  0  0  0  0
   -0.7410   -0.3914   -1.7517 C   0  0  0  0  0  0  0  0  0  0  0  0
    0.3267   -1.0892   -1.1949 C   0  0  0  0  0  0  0  0  0  0  0  0
    0.6274   -0.9445    0.1410 C   0  0  0  0  0  0  0  0  0  0  0  0
    1.7570   -1.6903    0.7128 C   0  0  0  0  0  0  0  0  0  0  0  0
    3.0509   -0.9641    0.6375 C   0  0  0  0  0  0  0  0  0  0  0  0
    3.5882   -0.3519    1.7639 C   0  0  0  0  0  0  0  0  0  0  0  0
    4.7596    0.3047    1.6865 N   0  0  0  0  0  0  0  0  0  0  0  0
    5.4645    0.4082    0.5491 C   0  0  0  0  0  0  0  0  0  0  0  0
    6.7089    1.1196    0.5073 N   0  0  0  0  0  0  0  0  0  0  0  0
    4.9496   -0.1821   -0.5433 N   0  0  0  0  0  0  0  0  0  0  0  0
    3.7760   -0.8575   -0.5307 C   0  0  0  0  0  0  0  0  0  0  0  0
    3.2456   -1.4758   -1.6971 N   0  0  0  0  0  0  0  0  0  0  0  0
   -0.1332   -0.0958    0.9572 C   0  0  0  0  0  0  0  0  0  0  0  0
   -1.1933    0.5913    0.3854 C   0  0  0  0  0  0  0  0  0  0  0  0
   -1.4918    0.4439   -0.9532 C   0  0  0  0  0  0  0  0  0  0  0  0
   -2.5668    1.1598   -1.4662 O   0  0  0  0  0  0  0  0  0  0  0  0
   -3.3510    2.0185   -0.6531 C   0  0  0  0  0  0  0  0  0  0  0  0
   -3.9652    1.2059    0.4205 C   0  0  0  0  0  0  0  0  0  0  0  0
   -4.5720    1.7819    1.5290 C   0  0  0  0  0  0  0  0  0  0  0  0
   -5.1357    0.9939    2.4998 C   0  0  0  0  0  0  0  0  0  0  0  0
   -5.1276   -0.3735    2.4247 C   0  0  0  0  0  0  0  0  0  0  0  0
   -4.5235   -0.9327    1.3217 C   0  0  0  0  0  0  0  0  0  0  0  0
   -3.9525   -0.1889    0.3358 C   0  0  0  0  0  0  0  0  0  0  0  0
  1  2  1  0
  2  3  1  0
  3  4  2  0
  4  5  1  0
  5  6  1  0
  6  7  1  0
  7  8  2  0
  8  9  1  0
  9 10  2  0
 10 11  1  0
 10 12  1  0
 12 13  2  0
 13 14  1  0
  5 15  2  0
 15 16  1  0
 16 17  2  0
 17 18  1  0
 18 19  1  0
 19 20  1  0
 20 21  2  0
 21 22  1  0
 22 23  2  0
 23 24  1  0
 24 25  2  0
 17  3  1  0
 25 20  1  0
 13  7  1  0
M  END
>  <zinc_id>  (34) 
ZINC000000010466

>  <ortholog_name>  (34) 
DRTS_PLAFK

>  <gene_name>  (34) 
DRTS_PLAFK

>  <affinity>  (34) 
6.68

>  <chembldocid>  (34) 
17636

>  <title>  (34) 
None

>  <reference.pubmed_id>  (34) 
14711307

>  <reference.doi>  (34) 
None

>  <reference.chembl_id>  (34) 
CHEMBL1148379

>  <reference.journal>  (34) 
J. Med. Chem.

>  <reference.year>  (34) 
2004

$$$$

     RDKit          3D

 25 27  0  0  0  0  0  0  0  0999 V2000
   -0.4079   -1.3104   -4.0065 C   0  0  0  0  0  0  0  0  0  0  0  0
   -1.0927   -0.4915   -3.0755 O   0  0  0  0  0  0  0  0  0  0  0  0
   -0.7410   -0.3914   -1.7517 C   0  0  0  0  0  0  0  0  0  0  0  0
    0.3267   -1.0892   -1.1949 C   0  0  0  0  0  0  0  0  0  0  0  0
    0.6274   -0.9445    0.1410 C   0  0  0  0  0  0  0  0  0  0  0  0
    1.7570   -1.6903    0.7128 C   0  0  0  0  0  0  0  0  0  0  0  0
    3.0509   -0.9641    0.6375 C   0  0  0  0  0  0  0  0  0  0  0  0
    3.5882   -0.3519    1.7639 C   0  0  0  0  0  0  0  0  0  0  0  0
    4.7596    0.3047    1.6865 N   0  0  0  0  0  0  0  0  0  0  0  0
    5.4645    0.4082    0.5491 C   0  0  0  0  0  0  0  0  0  0  0  0
    6.7089    1.1196    0.5073 N   0  0  0  0  0  0  0  0  0  0  0  0
    4.9496   -0.1821   -0.5433 N   0  0  0  0  0  0  0  0  0  0  0  0
    3.7760   -0.8575   -0.5307 C   0  0  0  0  0  0  0  0  0  0  0  0
    3.2456   -1.4758   -1.6971 N   0  0  0  0  0  0  0  0  0  0  0  0
   -0.1332   -0.0958    0.9572 C   0  0  0  0  0  0  0  0  0  0  0  0
   -1.1933    0.5913    0.3854 C   0  0  0  0  0  0  0  0  0  0  0  0
   -1.4918    0.4439   -0.9532 C   0  0  0  0  0  0  0  0  0  0  0  0
   -2.5668    1.1598   -1.4662 O   0  0  0  0  0  0  0  0  0  0  0  0
   -3.3510    2.0185   -0.6531 C   0  0  0  0  0  0  0  0  0  0  0  0
   -3.9652    1.2059    0.4205 C   0  0  0  0  0  0  0  0  0  0  0  0
   -4.5720    1.7819    1.5290 C   0  0  0  0  0  0  0  0  0  0  0  0
   -5.1357    0.9939    2.4998 C   0  0  0  0  0  0  0  0  0  0  0  0
   -5.1276   -0.3735    2.4247 C   0  0  0  0  0  0  0  0  0  0  0  0
   -4.5235   -0.9327    1.3217 C   0  0  0  0  0  0  0  0  0  0  0  0
   -3.9525   -0.1889    0.3358 C   0  0  0  0  0  0  0  0  0  0  0  0
  1  2  1  0
  2  3  1  0
  3  4  2  0
  4  5  1  0
  5  6  1  0
  6  7  1  0
  7  8  2  0
  8  9  1  0
  9 10  2  0
 10 11  1  0
 10 12  1  0
 12 13  2  0
 13 14  1  0
  5 15  2  0
 15 16  1  0
 16 17  2  0
 17 18  1  0
 18 19  1  0
 19 20  1  0
 20 21  2  0
 21 22  1  0
 22 23  2  0
 23 24  1  0
 24 25  2  0
 17  3  1  0
 25 20  1  0
 13  7  1  0
M  END
>  <zinc_id>  (35) 
ZINC000000010466

>  <ortholog_name>  (35) 
DRTS_PLAFK

>  <gene_name>  (35) 
DRTS_PLAFK

>  <affinity>  (35) 
7.46

>  <chembldocid>  (35) 
16871

>  <title>  (35) 
None

>  <reference.pubmed_id>  (35) 
11881993

>  <reference.doi>  (35) 
None

>  <reference.chembl_id>  (35) 
CHEMBL1135602

>  <reference.journal>  (35) 
J. Med. Chem.

>  <reference.year>  (35) 
2002

$$$$

     RDKit          3D

 25 27  0  0  0  0  0  0  0  0999 V2000
   -0.4079   -1.3104   -4.0065 C   0  0  0  0  0  0  0  0  0  0  0  0
   -1.0927   -0.4915   -3.0755 O   0  0  0  0  0  0  0  0  0  0  0  0
   -0.7410   -0.3914   -1.7517 C   0  0  0  0  0  0  0  0  0  0  0  0
    0.3267   -1.0892   -1.1949 C   0  0  0  0  0  0  0  0  0  0  0  0
    0.6274   -0.9445    0.1410 C   0  0  0  0  0  0  0  0  0  0  0  0
    1.7570   -1.6903    0.7128 C   0  0  0  0  0  0  0  0  0  0  0  0
    3.0509   -0.9641    0.6375 C   0  0  0  0  0  0  0  0  0  0  0  0
    3.5882   -0.3519    1.7639 C   0  0  0  0  0  0  0  0  0  0  0  0
    4.7596    0.3047    1.6865 N   0  0  0  0  0  0  0  0  0  0  0  0
    5.4645    0.4082    0.5491 C   0  0  0  0  0  0  0  0  0  0  0  0
    6.7089    1.1196    0.5073 N   0  0  0  0  0  0  0  0  0  0  0  0
    4.9496   -0.1821   -0.5433 N   0  0  0  0  0  0  0  0  0  0  0  0
    3.7760   -0.8575   -0.5307 C   0  0  0  0  0  0  0  0  0  0  0  0
    3.2456   -1.4758   -1.6971 N   0  0  0  0  0  0  0  0  0  0  0  0
   -0.1332   -0.0958    0.9572 C   0  0  0  0  0  0  0  0  0  0  0  0
   -1.1933    0.5913    0.3854 C   0  0  0  0  0  0  0  0  0  0  0  0
   -1.4918    0.4439   -0.9532 C   0  0  0  0  0  0  0  0  0  0  0  0
   -2.5668    1.1598   -1.4662 O   0  0  0  0  0  0  0  0  0  0  0  0
   -3.3510    2.0185   -0.6531 C   0  0  0  0  0  0  0  0  0  0  0  0
   -3.9652    1.2059    0.4205 C   0  0  0  0  0  0  0  0  0  0  0  0
   -4.5720    1.7819    1.5290 C   0  0  0  0  0  0  0  0  0  0  0  0
   -5.1357    0.9939    2.4998 C   0  0  0  0  0  0  0  0  0  0  0  0
   -5.1276   -0.3735    2.4247 C   0  0  0  0  0  0  0  0  0  0  0  0
   -4.5235   -0.9327    1.3217 C   0  0  0  0  0  0  0  0  0  0  0  0
   -3.9525   -0.1889    0.3358 C   0  0  0  0  0  0  0  0  0  0  0  0
  1  2  1  0
  2  3  1  0
  3  4  2  0
  4  5  1  0
  5  6  1  0
  6  7  1  0
  7  8  2  0
  8  9  1  0
  9 10  2  0
 10 11  1  0
 10 12  1  0
 12 13  2  0
 13 14  1  0
  5 15  2  0
 15 16  1  0
 16 17  2  0
 17 18  1  0
 18 19  1  0
 19 20  1  0
 20 21  2  0
 21 22  1  0
 22 23  2  0
 23 24  1  0
 24 25  2  0
 17  3  1  0
 25 20  1  0
 13  7  1  0
M  END
>  <zinc_id>  (36) 
ZINC000000010466

>  <ortholog_name>  (36) 
DRTS_PLAFK

>  <gene_name>  (36) 
DRTS_PLAFK

>  <affinity>  (36) 
5.33

>  <chembldocid>  (36) 
17636

>  <title>  (36) 
None

>  <reference.pubmed_id>  (36) 
14711307

>  <reference.doi>  (36) 
None

>  <reference.chembl_id>  (36) 
CHEMBL1148379

>  <reference.journal>  (36) 
J. Med. Chem.

>  <reference.year>  (36) 
2004

$$$$

     RDKit          3D

 25 27  0  0  0  0  0  0  0  0999 V2000
   -0.4079   -1.3104   -4.0065 C   0  0  0  0  0  0  0  0  0  0  0  0
   -1.0927   -0.4915   -3.0755 O   0  0  0  0  0  0  0  0  0  0  0  0
   -0.7410   -0.3914   -1.7517 C   0  0  0  0  0  0  0  0  0  0  0  0
    0.3267   -1.0892   -1.1949 C   0  0  0  0  0  0  0  0  0  0  0  0
    0.6274   -0.9445    0.1410 C   0  0  0  0  0  0  0  0  0  0  0  0
    1.7570   -1.6903    0.7128 C   0  0  0  0  0  0  0  0  0  0  0  0
    3.0509   -0.9641    0.6375 C   0  0  0  0  0  0  0  0  0  0  0  0
    3.5882   -0.3519    1.7639 C   0  0  0  0  0  0  0  0  0  0  0  0
    4.7596    0.3047    1.6865 N   0  0  0  0  0  0  0  0  0  0  0  0
    5.4645    0.4082    0.5491 C   0  0  0  0  0  0  0  0  0  0  0  0
    6.7089    1.1196    0.5073 N   0  0  0  0  0  0  0  0  0  0  0  0
    4.9496   -0.1821   -0.5433 N   0  0  0  0  0  0  0  0  0  0  0  0
    3.7760   -0.8575   -0.5307 C   0  0  0  0  0  0  0  0  0  0  0  0
    3.2456   -1.4758   -1.6971 N   0  0  0  0  0  0  0  0  0  0  0  0
   -0.1332   -0.0958    0.9572 C   0  0  0  0  0  0  0  0  0  0  0  0
   -1.1933    0.5913    0.3854 C   0  0  0  0  0  0  0  0  0  0  0  0
   -1.4918    0.4439   -0.9532 C   0  0  0  0  0  0  0  0  0  0  0  0
   -2.5668    1.1598   -1.4662 O   0  0  0  0  0  0  0  0  0  0  0  0
   -3.3510    2.0185   -0.6531 C   0  0  0  0  0  0  0  0  0  0  0  0
   -3.9652    1.2059    0.4205 C   0  0  0  0  0  0  0  0  0  0  0  0
   -4.5720    1.7819    1.5290 C   0  0  0  0  0  0  0  0  0  0  0  0
   -5.1357    0.9939    2.4998 C   0  0  0  0  0  0  0  0  0  0  0  0
   -5.1276   -0.3735    2.4247 C   0  0  0  0  0  0  0  0  0  0  0  0
   -4.5235   -0.9327    1.3217 C   0  0  0  0  0  0  0  0  0  0  0  0
   -3.9525   -0.1889    0.3358 C   0  0  0  0  0  0  0  0  0  0  0  0
  1  2  1  0
  2  3  1  0
  3  4  2  0
  4  5  1  0
  5  6  1  0
  6  7  1  0
  7  8  2  0
  8  9  1  0
  9 10  2  0
 10 11  1  0
 10 12  1  0
 12 13  2  0
 13 14  1  0
  5 15  2  0
 15 16  1  0
 16 17  2  0
 17 18  1  0
 18 19  1  0
 19 20  1  0
 20 21  2  0
 21 22  1  0
 22 23  2  0
 23 24  1  0
 24 25  2  0
 17  3  1  0
 25 20  1  0
 13  7  1  0
M  END
>  <zinc_id>  (37) 
ZINC000000010466

>  <ortholog_name>  (37) 
DRTS_PLAFK

>  <gene_name>  (37) 
DRTS_PLAFK

>  <affinity>  (37) 
7.22

>  <chembldocid>  (37) 
16871

>  <title>  (37) 
None

>  <reference.pubmed_id>  (37) 
11881993

>  <reference.doi>  (37) 
None

>  <reference.chembl_id>  (37) 
CHEMBL1135602

>  <reference.journal>  (37) 
J. Med. Chem.

>  <reference.year>  (37) 
2002

$$$$

     RDKit          3D

 25 27  0  0  0  0  0  0  0  0999 V2000
   -0.4079   -1.3104   -4.0065 C   0  0  0  0  0  0  0  0  0  0  0  0
   -1.0927   -0.4915   -3.0755 O   0  0  0  0  0  0  0  0  0  0  0  0
   -0.7410   -0.3914   -1.7517 C   0  0  0  0  0  0  0  0  0  0  0  0
    0.3267   -1.0892   -1.1949 C   0  0  0  0  0  0  0  0  0  0  0  0
    0.6274   -0.9445    0.1410 C   0  0  0  0  0  0  0  0  0  0  0  0
    1.7570   -1.6903    0.7128 C   0  0  0  0  0  0  0  0  0  0  0  0
    3.0509   -0.9641    0.6375 C   0  0  0  0  0  0  0  0  0  0  0  0
    3.5882   -0.3519    1.7639 C   0  0  0  0  0  0  0  0  0  0  0  0
    4.7596    0.3047    1.6865 N   0  0  0  0  0  0  0  0  0  0  0  0
    5.4645    0.4082    0.5491 C   0  0  0  0  0  0  0  0  0  0  0  0
    6.7089    1.1196    0.5073 N   0  0  0  0  0  0  0  0  0  0  0  0
    4.9496   -0.1821   -0.5433 N   0  0  0  0  0  0  0  0  0  0  0  0
    3.7760   -0.8575   -0.5307 C   0  0  0  0  0  0  0  0  0  0  0  0
    3.2456   -1.4758   -1.6971 N   0  0  0  0  0  0  0  0  0  0  0  0
   -0.1332   -0.0958    0.9572 C   0  0  0  0  0  0  0  0  0  0  0  0
   -1.1933    0.5913    0.3854 C   0  0  0  0  0  0  0  0  0  0  0  0
   -1.4918    0.4439   -0.9532 C   0  0  0  0  0  0  0  0  0  0  0  0
   -2.5668    1.1598   -1.4662 O   0  0  0  0  0  0  0  0  0  0  0  0
   -3.3510    2.0185   -0.6531 C   0  0  0  0  0  0  0  0  0  0  0  0
   -3.9652    1.2059    0.4205 C   0  0  0  0  0  0  0  0  0  0  0  0
   -4.5720    1.7819    1.5290 C   0  0  0  0  0  0  0  0  0  0  0  0
   -5.1357    0.9939    2.4998 C   0  0  0  0  0  0  0  0  0  0  0  0
   -5.1276   -0.3735    2.4247 C   0  0  0  0  0  0  0  0  0  0  0  0
   -4.5235   -0.9327    1.3217 C   0  0  0  0  0  0  0  0  0  0  0  0
   -3.9525   -0.1889    0.3358 C   0  0  0  0  0  0  0  0  0  0  0  0
  1  2  1  0
  2  3  1  0
  3  4  2  0
  4  5  1  0
  5  6  1  0
  6  7  1  0
  7  8  2  0
  8  9  1  0
  9 10  2  0
 10 11  1  0
 10 12  1  0
 12 13  2  0
 13 14  1  0
  5 15  2  0
 15 16  1  0
 16 17  2  0
 17 18  1  0
 18 19  1  0
 19 20  1  0
 20 21  2  0
 21 22  1  0
 22 23  2  0
 23 24  1  0
 24 25  2  0
 17  3  1  0
 25 20  1  0
 13  7  1  0
M  END
>  <zinc_id>  (38) 
ZINC000000010466

>  <ortholog_name>  (38) 
DRTS_PLAFK

>  <gene_name>  (38) 
DRTS_PLAFK

>  <affinity>  (38) 
7.22

>  <chembldocid>  (38) 
17636

>  <title>  (38) 
None

>  <reference.pubmed_id>  (38) 
14711307

>  <reference.doi>  (38) 
None

>  <reference.chembl_id>  (38) 
CHEMBL1148379

>  <reference.journal>  (38) 
J. Med. Chem.

>  <reference.year>  (38) 
2004

$$$$

     RDKit          3D

 25 27  0  0  0  0  0  0  0  0999 V2000
   -0.4079   -1.3104   -4.0065 C   0  0  0  0  0  0  0  0  0  0  0  0
   -1.0927   -0.4915   -3.0755 O   0  0  0  0  0  0  0  0  0  0  0  0
   -0.7410   -0.3914   -1.7517 C   0  0  0  0  0  0  0  0  0  0  0  0
    0.3267   -1.0892   -1.1949 C   0  0  0  0  0  0  0  0  0  0  0  0
    0.6274   -0.9445    0.1410 C   0  0  0  0  0  0  0  0  0  0  0  0
    1.7570   -1.6903    0.7128 C   0  0  0  0  0  0  0  0  0  0  0  0
    3.0509   -0.9641    0.6375 C   0  0  0  0  0  0  0  0  0  0  0  0
    3.5882   -0.3519    1.7639 C   0  0  0  0  0  0  0  0  0  0  0  0
    4.7596    0.3047    1.6865 N   0  0  0  0  0  0  0  0  0  0  0  0
    5.4645    0.4082    0.5491 C   0  0  0  0  0  0  0  0  0  0  0  0
    6.7089    1.1196    0.5073 N   0  0  0  0  0  0  0  0  0  0  0  0
    4.9496   -0.1821   -0.5433 N   0  0  0  0  0  0  0  0  0  0  0  0
    3.7760   -0.8575   -0.5307 C   0  0  0  0  0  0  0  0  0  0  0  0
    3.2456   -1.4758   -1.6971 N   0  0  0  0  0  0  0  0  0  0  0  0
   -0.1332   -0.0958    0.9572 C   0  0  0  0  0  0  0  0  0  0  0  0
   -1.1933    0.5913    0.3854 C   0  0  0  0  0  0  0  0  0  0  0  0
   -1.4918    0.4439   -0.9532 C   0  0  0  0  0  0  0  0  0  0  0  0
   -2.5668    1.1598   -1.4662 O   0  0  0  0  0  0  0  0  0  0  0  0
   -3.3510    2.0185   -0.6531 C   0  0  0  0  0  0  0  0  0  0  0  0
   -3.9652    1.2059    0.4205 C   0  0  0  0  0  0  0  0  0  0  0  0
   -4.5720    1.7819    1.5290 C   0  0  0  0  0  0  0  0  0  0  0  0
   -5.1357    0.9939    2.4998 C   0  0  0  0  0  0  0  0  0  0  0  0
   -5.1276   -0.3735    2.4247 C   0  0  0  0  0  0  0  0  0  0  0  0
   -4.5235   -0.9327    1.3217 C   0  0  0  0  0  0  0  0  0  0  0  0
   -3.9525   -0.1889    0.3358 C   0  0  0  0  0  0  0  0  0  0  0  0
  1  2  1  0
  2  3  1  0
  3  4  2  0
  4  5  1  0
  5  6  1  0
  6  7  1  0
  7  8  2  0
  8  9  1  0
  9 10  2  0
 10 11  1  0
 10 12  1  0
 12 13  2  0
 13 14  1  0
  5 15  2  0
 15 16  1  0
 16 17  2  0
 17 18  1  0
 18 19  1  0
 19 20  1  0
 20 21  2  0
 21 22  1  0
 22 23  2  0
 23 24  1  0
 24 25  2  0
 17  3  1  0
 25 20  1  0
 13  7  1  0
M  END
>  <zinc_id>  (39) 
ZINC000000010466

>  <ortholog_name>  (39) 
DRTS_PLAFK

>  <gene_name>  (39) 
DRTS_PLAFK

>  <affinity>  (39) 
6.15

>  <chembldocid>  (39) 
17636

>  <title>  (39) 
None

>  <reference.pubmed_id>  (39) 
14711307

>  <reference.doi>  (39) 
None

>  <reference.chembl_id>  (39) 
CHEMBL1148379

>  <reference.journal>  (39) 
J. Med. Chem.

>  <reference.year>  (39) 
2004

$$$$

     RDKit          3D

 19 20  0  0  0  0  0  0  0  0999 V2000
   -5.0813   -0.6803    0.3596 C   0  0  0  0  0  0  0  0  0  0  0  0
   -4.2251    0.0064   -0.5331 O   0  0  0  0  0  0  0  0  0  0  0  0
   -2.8872   -0.3207   -0.5822 C   0  0  0  0  0  0  0  0  0  0  0  0
   -2.3353   -1.3174    0.2259 C   0  0  0  0  0  0  0  0  0  0  0  0
   -0.9881   -1.6008    0.1322 C   0  0  0  0  0  0  0  0  0  0  0  0
   -0.1277   -0.9506   -0.7263 C   0  0  0  0  0  0  0  0  0  0  0  0
    1.3176   -1.2859   -0.7957 C   0  0  0  0  0  0  0  0  0  0  0  0
    2.0239   -0.4417    0.1647 C   0  0  0  0  0  0  0  0  0  0  0  0
    2.7594    0.6488   -0.2458 C   0  0  0  0  0  0  0  0  0  0  0  0
    3.4172    1.4387    0.6352 N   0  0  0  0  0  0  0  0  0  0  0  0
    3.3621    1.1663    1.9494 C   0  0  0  0  0  0  0  0  0  0  0  0
    4.0611    2.0057    2.8846 N   0  0  0  0  0  0  0  0  0  0  0  0
    2.6461    0.1032    2.3595 N   0  0  0  0  0  0  0  0  0  0  0  0
    1.9773   -0.7076    1.5153 C   0  0  0  0  0  0  0  0  0  0  0  0
    1.2192   -1.8346    1.9548 N   0  0  0  0  0  0  0  0  0  0  0  0
   -0.6844    0.0400   -1.5274 C   0  0  0  0  0  0  0  0  0  0  0  0
   -2.0353    0.3345   -1.4434 C   0  0  0  0  0  0  0  0  0  0  0  0
   -2.5829    1.3211   -2.2427 O   0  0  0  0  0  0  0  0  0  0  0  0
   -1.8366    2.0750   -3.1696 C   0  0  0  0  0  0  0  0  0  0  0  0
  1  2  1  0
  2  3  1  0
  3  4  2  0
  4  5  1  0
  5  6  2  0
  6  7  1  0
  7  8  1  0
  8  9  2  0
  9 10  1  0
 10 11  2  0
 11 12  1  0
 11 13  1  0
 13 14  2  0
 14 15  1  0
  6 16  1  0
 16 17  2  0
 17 18  1  0
 18 19  1  0
 17  3  1  0
 14  8  1  0
M  END
>  <zinc_id>  (40) 
ZINC000000024946

>  <ortholog_name>  (40) 
DRTS_PLAFK

>  <gene_name>  (40) 
DRTS_PLAFK

>  <affinity>  (40) 
7.94

>  <chembldocid>  (40) 
17636

>  <title>  (40) 
None

>  <reference.pubmed_id>  (40) 
14711307

>  <reference.doi>  (40) 
None

>  <reference.chembl_id>  (40) 
CHEMBL1148379

>  <reference.journal>  (40) 
J. Med. Chem.

>  <reference.year>  (40) 
2004

$$$$

     RDKit          3D

 19 20  0  0  0  0  0  0  0  0999 V2000
   -5.0813   -0.6803    0.3596 C   0  0  0  0  0  0  0  0  0  0  0  0
   -4.2251    0.0064   -0.5331 O   0  0  0  0  0  0  0  0  0  0  0  0
   -2.8872   -0.3207   -0.5822 C   0  0  0  0  0  0  0  0  0  0  0  0
   -2.3353   -1.3174    0.2259 C   0  0  0  0  0  0  0  0  0  0  0  0
   -0.9881   -1.6008    0.1322 C   0  0  0  0  0  0  0  0  0  0  0  0
   -0.1277   -0.9506   -0.7263 C   0  0  0  0  0  0  0  0  0  0  0  0
    1.3176   -1.2859   -0.7957 C   0  0  0  0  0  0  0  0  0  0  0  0
    2.0239   -0.4417    0.1647 C   0  0  0  0  0  0  0  0  0  0  0  0
    2.7594    0.6488   -0.2458 C   0  0  0  0  0  0  0  0  0  0  0  0
    3.4172    1.4387    0.6352 N   0  0  0  0  0  0  0  0  0  0  0  0
    3.3621    1.1663    1.9494 C   0  0  0  0  0  0  0  0  0  0  0  0
    4.0611    2.0057    2.8846 N   0  0  0  0  0  0  0  0  0  0  0  0
    2.6461    0.1032    2.3595 N   0  0  0  0  0  0  0  0  0  0  0  0
    1.9773   -0.7076    1.5153 C   0  0  0  0  0  0  0  0  0  0  0  0
    1.2192   -1.8346    1.9548 N   0  0  0  0  0  0  0  0  0  0  0  0
   -0.6844    0.0400   -1.5274 C   0  0  0  0  0  0  0  0  0  0  0  0
   -2.0353    0.3345   -1.4434 C   0  0  0  0  0  0  0  0  0  0  0  0
   -2.5829    1.3211   -2.2427 O   0  0  0  0  0  0  0  0  0  0  0  0
   -1.8366    2.0750   -3.1696 C   0  0  0  0  0  0  0  0  0  0  0  0
  1  2  1  0
  2  3  1  0
  3  4  2  0
  4  5  1  0
  5  6  2  0
  6  7  1  0
  7  8  1  0
  8  9  2  0
  9 10  1  0
 10 11  2  0
 11 12  1  0
 11 13  1  0
 13 14  2  0
 14 15  1  0
  6 16  1  0
 16 17  2  0
 17 18  1  0
 18 19  1  0
 17  3  1  0
 14  8  1  0
M  END
>  <zinc_id>  (41) 
ZINC000000024946

>  <ortholog_name>  (41) 
DRTS_PLAFK

>  <gene_name>  (41) 
DRTS_PLAFK

>  <affinity>  (41) 
6.63

>  <chembldocid>  (41) 
17636

>  <title>  (41) 
None

>  <reference.pubmed_id>  (41) 
14711307

>  <reference.doi>  (41) 
None

>  <reference.chembl_id>  (41) 
CHEMBL1148379

>  <reference.journal>  (41) 
J. Med. Chem.

>  <reference.year>  (41) 
2004

$$$$

     RDKit          3D

 19 20  0  0  0  0  0  0  0  0999 V2000
   -5.0813   -0.6803    0.3596 C   0  0  0  0  0  0  0  0  0  0  0  0
   -4.2251    0.0064   -0.5331 O   0  0  0  0  0  0  0  0  0  0  0  0
   -2.8872   -0.3207   -0.5822 C   0  0  0  0  0  0  0  0  0  0  0  0
   -2.3353   -1.3174    0.2259 C   0  0  0  0  0  0  0  0  0  0  0  0
   -0.9881   -1.6008    0.1322 C   0  0  0  0  0  0  0  0  0  0  0  0
   -0.1277   -0.9506   -0.7263 C   0  0  0  0  0  0  0  0  0  0  0  0
    1.3176   -1.2859   -0.7957 C   0  0  0  0  0  0  0  0  0  0  0  0
    2.0239   -0.4417    0.1647 C   0  0  0  0  0  0  0  0  0  0  0  0
    2.7594    0.6488   -0.2458 C   0  0  0  0  0  0  0  0  0  0  0  0
    3.4172    1.4387    0.6352 N   0  0  0  0  0  0  0  0  0  0  0  0
    3.3621    1.1663    1.9494 C   0  0  0  0  0  0  0  0  0  0  0  0
    4.0611    2.0057    2.8846 N   0  0  0  0  0  0  0  0  0  0  0  0
    2.6461    0.1032    2.3595 N   0  0  0  0  0  0  0  0  0  0  0  0
    1.9773   -0.7076    1.5153 C   0  0  0  0  0  0  0  0  0  0  0  0
    1.2192   -1.8346    1.9548 N   0  0  0  0  0  0  0  0  0  0  0  0
   -0.6844    0.0400   -1.5274 C   0  0  0  0  0  0  0  0  0  0  0  0
   -2.0353    0.3345   -1.4434 C   0  0  0  0  0  0  0  0  0  0  0  0
   -2.5829    1.3211   -2.2427 O   0  0  0  0  0  0  0  0  0  0  0  0
   -1.8366    2.0750   -3.1696 C   0  0  0  0  0  0  0  0  0  0  0  0
  1  2  1  0
  2  3  1  0
  3  4  2  0
  4  5  1  0
  5  6  2  0
  6  7  1  0
  7  8  1  0
  8  9  2  0
  9 10  1  0
 10 11  2  0
 11 12  1  0
 11 13  1  0
 13 14  2  0
 14 15  1  0
  6 16  1  0
 16 17  2  0
 17 18  1  0
 18 19  1  0
 17  3  1  0
 14  8  1  0
M  END
>  <zinc_id>  (42) 
ZINC000000024946

>  <ortholog_name>  (42) 
DRTS_PLAFK

>  <gene_name>  (42) 
DRTS_PLAFK

>  <affinity>  (42) 
5.58

>  <chembldocid>  (42) 
17636

>  <title>  (42) 
None

>  <reference.pubmed_id>  (42) 
14711307

>  <reference.doi>  (42) 
None

>  <reference.chembl_id>  (42) 
CHEMBL1148379

>  <reference.journal>  (42) 
J. Med. Chem.

>  <reference.year>  (42) 
2004

$$$$

     RDKit          3D

 14 15  0  0  0  0  0  0  0  0999 V2000
    4.5321   -0.1409   -0.0284 N   0  0  0  0  0  0  0  0  0  0  0  0
    3.1071   -0.0543   -0.0565 C   0  0  0  0  0  0  0  0  0  0  0  0
    2.4871    0.8490   -0.8451 N   0  0  0  0  0  0  0  0  0  0  0  0
    1.1447    0.9507   -0.8897 C   0  0  0  0  0  0  0  0  0  0  0  0
    0.3465    0.1283   -0.1242 C   0  0  0  0  0  0  0  0  0  0  0  0
   -1.1111    0.1956   -0.1339 C   0  0  0  0  0  0  0  0  0  0  0  0
   -1.8323    0.2929   -1.3221 C   0  0  0  0  0  0  0  0  0  0  0  0
   -3.2077    0.3570   -1.3420 C   0  0  0  0  0  0  0  0  0  0  0  0
   -3.9183    0.3253   -0.1530 C   0  0  0  0  0  0  0  0  0  0  0  0
   -3.2239    0.2294    1.0342 C   0  0  0  0  0  0  0  0  0  0  0  0
   -1.8456    0.1673    1.0145 C   0  0  0  0  0  0  0  0  0  0  0  0
    0.9898   -0.7911    0.6780 C   0  0  0  0  0  0  0  0  0  0  0  0
    0.1949   -1.6517    1.4775 N   0  0  0  0  0  0  0  0  0  0  0  0
    2.3367   -0.8574    0.6906 N   0  0  0  0  0  0  0  0  0  0  0  0
  1  2  1  0
  2  3  2  0
  3  4  1  0
  4  5  2  0
  5  6  1  0
  6  7  2  0
  7  8  1  0
  8  9  2  0
  9 10  1  0
 10 11  2  0
  5 12  1  0
 12 13  1  0
 12 14  2  0
 14  2  1  0
 11  6  1  0
M  END
>  <zinc_id>  (43) 
ZINC000000040057

>  <ortholog_name>  (43) 
DRTS_PLAFK

>  <gene_name>  (43) 
DRTS_PLAFK

>  <affinity>  (43) 
7.00

>  <chembldocid>  (43) 
21047

>  <title>  (43) 
None

>  <reference.pubmed_id>  (43) 
15293997

>  <reference.doi>  (43) 
None

>  <reference.chembl_id>  (43) 
CHEMBL1138679

>  <reference.journal>  (43) 
J. Med. Chem.

>  <reference.year>  (43) 
2004

$$$$

     RDKit          3D

 14 15  0  0  0  0  0  0  0  0999 V2000
    4.5321   -0.1409   -0.0284 N   0  0  0  0  0  0  0  0  0  0  0  0
    3.1071   -0.0543   -0.0565 C   0  0  0  0  0  0  0  0  0  0  0  0
    2.4871    0.8490   -0.8451 N   0  0  0  0  0  0  0  0  0  0  0  0
    1.1447    0.9507   -0.8897 C   0  0  0  0  0  0  0  0  0  0  0  0
    0.3465    0.1283   -0.1242 C   0  0  0  0  0  0  0  0  0  0  0  0
   -1.1111    0.1956   -0.1339 C   0  0  0  0  0  0  0  0  0  0  0  0
   -1.8323    0.2929   -1.3221 C   0  0  0  0  0  0  0  0  0  0  0  0
   -3.2077    0.3570   -1.3420 C   0  0  0  0  0  0  0  0  0  0  0  0
   -3.9183    0.3253   -0.1530 C   0  0  0  0  0  0  0  0  0  0  0  0
   -3.2239    0.2294    1.0342 C   0  0  0  0  0  0  0  0  0  0  0  0
   -1.8456    0.1673    1.0145 C   0  0  0  0  0  0  0  0  0  0  0  0
    0.9898   -0.7911    0.6780 C   0  0  0  0  0  0  0  0  0  0  0  0
    0.1949   -1.6517    1.4775 N   0  0  0  0  0  0  0  0  0  0  0  0
    2.3367   -0.8574    0.6906 N   0  0  0  0  0  0  0  0  0  0  0  0
  1  2  1  0
  2  3  2  0
  3  4  1  0
  4  5  2  0
  5  6  1  0
  6  7  2  0
  7  8  1  0
  8  9  2  0
  9 10  1  0
 10 11  2  0
  5 12  1  0
 12 13  1  0
 12 14  2  0
 14  2  1  0
 11  6  1  0
M  END
>  <zinc_id>  (44) 
ZINC000000040057

>  <ortholog_name>  (44) 
DRTS_PLAFK

>  <gene_name>  (44) 
DRTS_PLAFK

>  <affinity>  (44) 
7.38

>  <chembldocid>  (44) 
16871

>  <title>  (44) 
None

>  <reference.pubmed_id>  (44) 
11881993

>  <reference.doi>  (44) 
None

>  <reference.chembl_id>  (44) 
CHEMBL1135602

>  <reference.journal>  (44) 
J. Med. Chem.

>  <reference.year>  (44) 
2002

$$$$

     RDKit          3D

 14 15  0  0  0  0  0  0  0  0999 V2000
    4.5321   -0.1409   -0.0284 N   0  0  0  0  0  0  0  0  0  0  0  0
    3.1071   -0.0543   -0.0565 C   0  0  0  0  0  0  0  0  0  0  0  0
    2.4871    0.8490   -0.8451 N   0  0  0  0  0  0  0  0  0  0  0  0
    1.1447    0.9507   -0.8897 C   0  0  0  0  0  0  0  0  0  0  0  0
    0.3465    0.1283   -0.1242 C   0  0  0  0  0  0  0  0  0  0  0  0
   -1.1111    0.1956   -0.1339 C   0  0  0  0  0  0  0  0  0  0  0  0
   -1.8323    0.2929   -1.3221 C   0  0  0  0  0  0  0  0  0  0  0  0
   -3.2077    0.3570   -1.3420 C   0  0  0  0  0  0  0  0  0  0  0  0
   -3.9183    0.3253   -0.1530 C   0  0  0  0  0  0  0  0  0  0  0  0
   -3.2239    0.2294    1.0342 C   0  0  0  0  0  0  0  0  0  0  0  0
   -1.8456    0.1673    1.0145 C   0  0  0  0  0  0  0  0  0  0  0  0
    0.9898   -0.7911    0.6780 C   0  0  0  0  0  0  0  0  0  0  0  0
    0.1949   -1.6517    1.4775 N   0  0  0  0  0  0  0  0  0  0  0  0
    2.3367   -0.8574    0.6906 N   0  0  0  0  0  0  0  0  0  0  0  0
  1  2  1  0
  2  3  2  0
  3  4  1  0
  4  5  2  0
  5  6  1  0
  6  7  2  0
  7  8  1  0
  8  9  2  0
  9 10  1  0
 10 11  2  0
  5 12  1  0
 12 13  1  0
 12 14  2  0
 14  2  1  0
 11  6  1  0
M  END
>  <zinc_id>  (45) 
ZINC000000040057

>  <ortholog_name>  (45) 
DRTS_PLAFK

>  <gene_name>  (45) 
DRTS_PLAFK

>  <affinity>  (45) 
7.12

>  <chembldocid>  (45) 
16871

>  <title>  (45) 
None

>  <reference.pubmed_id>  (45) 
11881993

>  <reference.doi>  (45) 
None

>  <reference.chembl_id>  (45) 
CHEMBL1135602

>  <reference.journal>  (45) 
J. Med. Chem.

>  <reference.year>  (45) 
2002

$$$$

     RDKit          3D

 14 15  0  0  0  0  0  0  0  0999 V2000
    4.5321   -0.1409   -0.0284 N   0  0  0  0  0  0  0  0  0  0  0  0
    3.1071   -0.0543   -0.0565 C   0  0  0  0  0  0  0  0  0  0  0  0
    2.4871    0.8490   -0.8451 N   0  0  0  0  0  0  0  0  0  0  0  0
    1.1447    0.9507   -0.8897 C   0  0  0  0  0  0  0  0  0  0  0  0
    0.3465    0.1283   -0.1242 C   0  0  0  0  0  0  0  0  0  0  0  0
   -1.1111    0.1956   -0.1339 C   0  0  0  0  0  0  0  0  0  0  0  0
   -1.8323    0.2929   -1.3221 C   0  0  0  0  0  0  0  0  0  0  0  0
   -3.2077    0.3570   -1.3420 C   0  0  0  0  0  0  0  0  0  0  0  0
   -3.9183    0.3253   -0.1530 C   0  0  0  0  0  0  0  0  0  0  0  0
   -3.2239    0.2294    1.0342 C   0  0  0  0  0  0  0  0  0  0  0  0
   -1.8456    0.1673    1.0145 C   0  0  0  0  0  0  0  0  0  0  0  0
    0.9898   -0.7911    0.6780 C   0  0  0  0  0  0  0  0  0  0  0  0
    0.1949   -1.6517    1.4775 N   0  0  0  0  0  0  0  0  0  0  0  0
    2.3367   -0.8574    0.6906 N   0  0  0  0  0  0  0  0  0  0  0  0
  1  2  1  0
  2  3  2  0
  3  4  1  0
  4  5  2  0
  5  6  1  0
  6  7  2  0
  7  8  1  0
  8  9  2  0
  9 10  1  0
 10 11  2  0
  5 12  1  0
 12 13  1  0
 12 14  2  0
 14  2  1  0
 11  6  1  0
M  END
>  <zinc_id>  (46) 
ZINC000000040057

>  <ortholog_name>  (46) 
DRTS_PLAFK

>  <gene_name>  (46) 
DRTS_PLAFK

>  <affinity>  (46) 
7.09

>  <chembldocid>  (46) 
16871

>  <title>  (46) 
None

>  <reference.pubmed_id>  (46) 
11881993

>  <reference.doi>  (46) 
None

>  <reference.chembl_id>  (46) 
CHEMBL1135602

>  <reference.journal>  (46) 
J. Med. Chem.

>  <reference.year>  (46) 
2002

$$$$

     RDKit          3D

 17 18  0  0  0  0  0  0  0  0999 V2000
    0.4353    2.7611    0.6620 C   0  0  0  0  0  0  0  0  0  0  0  0
    0.8390    2.1111   -0.6197 C   0  0  0  0  0  0  0  0  0  0  0  0
    1.4944    0.7898   -0.3759 C   0  0  0  0  0  0  0  0  0  0  0  0
    2.7984    0.6160   -0.4688 N   0  0  0  0  0  0  0  0  0  0  0  0
    3.3263   -0.6158   -0.2405 C   0  0  0  0  0  0  0  0  0  0  0  0
    4.7518   -0.8428   -0.3322 N   0  0  0  0  0  0  0  0  0  0  0  0
    2.5374   -1.6499    0.0784 N   0  0  0  0  0  0  0  0  0  0  0  0
    1.2119   -1.5129    0.1815 C   0  0  0  0  0  0  0  0  0  0  0  0
    0.3531   -2.6049    0.5265 N   0  0  0  0  0  0  0  0  0  0  0  0
    0.6756   -0.2625   -0.0511 C   0  0  0  0  0  0  0  0  0  0  0  0
   -0.7785   -0.0599    0.0807 C   0  0  0  0  0  0  0  0  0  0  0  0
   -1.5741    0.2559   -1.0150 C   0  0  0  0  0  0  0  0  0  0  0  0
   -2.9351    0.4292   -0.9293 C   0  0  0  0  0  0  0  0  0  0  0  0
   -3.5975    0.2949    0.2820 C   0  0  0  0  0  0  0  0  0  0  0  0
   -5.3203    0.5041    0.4559 Cl  0  0  0  0  0  0  0  0  0  0  0  0
   -2.7896   -0.0210    1.3821 C   0  0  0  0  0  0  0  0  0  0  0  0
   -1.4281   -0.1924    1.2891 C   0  0  0  0  0  0  0  0  0  0  0  0
  1  2  1  0
  2  3  1  0
  3  4  2  0
  4  5  1  0
  5  6  1  0
  5  7  2  0
  7  8  1  0
  8  9  1  0
  8 10  2  0
 10 11  1  0
 11 12  2  0
 12 13  1  0
 13 14  2  0
 14 15  1  0
 14 16  1  0
 16 17  2  0
 10  3  1  0
 17 11  1  0
M  END
>  <zinc_id>  (47) 
ZINC000000057464

>  <ortholog_name>  (47) 
DRTS_PLAFK

>  <gene_name>  (47) 
DRTS_PLAFK

>  <affinity>  (47) 
9.72

>  <chembldocid>  (47) 
11357

>  <title>  (47) 
None

>  <reference.pubmed_id>  (47) 
1495020

>  <reference.doi>  (47) 
None

>  <reference.chembl_id>  (47) 
CHEMBL1125508

>  <reference.journal>  (47) 
J. Med. Chem.

>  <reference.year>  (47) 
1992

$$$$

     RDKit          3D

 17 18  0  0  0  0  0  0  0  0999 V2000
    0.4353    2.7611    0.6620 C   0  0  0  0  0  0  0  0  0  0  0  0
    0.8390    2.1111   -0.6197 C   0  0  0  0  0  0  0  0  0  0  0  0
    1.4944    0.7898   -0.3759 C   0  0  0  0  0  0  0  0  0  0  0  0
    2.7984    0.6160   -0.4688 N   0  0  0  0  0  0  0  0  0  0  0  0
    3.3263   -0.6158   -0.2405 C   0  0  0  0  0  0  0  0  0  0  0  0
    4.7518   -0.8428   -0.3322 N   0  0  0  0  0  0  0  0  0  0  0  0
    2.5374   -1.6499    0.0784 N   0  0  0  0  0  0  0  0  0  0  0  0
    1.2119   -1.5129    0.1815 C   0  0  0  0  0  0  0  0  0  0  0  0
    0.3531   -2.6049    0.5265 N   0  0  0  0  0  0  0  0  0  0  0  0
    0.6756   -0.2625   -0.0511 C   0  0  0  0  0  0  0  0  0  0  0  0
   -0.7785   -0.0599    0.0807 C   0  0  0  0  0  0  0  0  0  0  0  0
   -1.5741    0.2559   -1.0150 C   0  0  0  0  0  0  0  0  0  0  0  0
   -2.9351    0.4292   -0.9293 C   0  0  0  0  0  0  0  0  0  0  0  0
   -3.5975    0.2949    0.2820 C   0  0  0  0  0  0  0  0  0  0  0  0
   -5.3203    0.5041    0.4559 Cl  0  0  0  0  0  0  0  0  0  0  0  0
   -2.7896   -0.0210    1.3821 C   0  0  0  0  0  0  0  0  0  0  0  0
   -1.4281   -0.1924    1.2891 C   0  0  0  0  0  0  0  0  0  0  0  0
  1  2  1  0
  2  3  1  0
  3  4  2  0
  4  5  1  0
  5  6  1  0
  5  7  2  0
  7  8  1  0
  8  9  1  0
  8 10  2  0
 10 11  1  0
 11 12  2  0
 12 13  1  0
 13 14  2  0
 14 15  1  0
 14 16  1  0
 16 17  2  0
 10  3  1  0
 17 11  1  0
M  END
>  <zinc_id>  (48) 
ZINC000000057464

>  <ortholog_name>  (48) 
DRTS_PLAFK

>  <gene_name>  (48) 
DRTS_PLAFK

>  <affinity>  (48) 
9.22

>  <chembldocid>  (48) 
16871

>  <title>  (48) 
None

>  <reference.pubmed_id>  (48) 
11881993

>  <reference.doi>  (48) 
None

>  <reference.chembl_id>  (48) 
CHEMBL1135602

>  <reference.journal>  (48) 
J. Med. Chem.

>  <reference.year>  (48) 
2002

$$$$

     RDKit          3D

 17 18  0  0  0  0  0  0  0  0999 V2000
    0.4353    2.7611    0.6620 C   0  0  0  0  0  0  0  0  0  0  0  0
    0.8390    2.1111   -0.6197 C   0  0  0  0  0  0  0  0  0  0  0  0
    1.4944    0.7898   -0.3759 C   0  0  0  0  0  0  0  0  0  0  0  0
    2.7984    0.6160   -0.4688 N   0  0  0  0  0  0  0  0  0  0  0  0
    3.3263   -0.6158   -0.2405 C   0  0  0  0  0  0  0  0  0  0  0  0
    4.7518   -0.8428   -0.3322 N   0  0  0  0  0  0  0  0  0  0  0  0
    2.5374   -1.6499    0.0784 N   0  0  0  0  0  0  0  0  0  0  0  0
    1.2119   -1.5129    0.1815 C   0  0  0  0  0  0  0  0  0  0  0  0
    0.3531   -2.6049    0.5265 N   0  0  0  0  0  0  0  0  0  0  0  0
    0.6756   -0.2625   -0.0511 C   0  0  0  0  0  0  0  0  0  0  0  0
   -0.7785   -0.0599    0.0807 C   0  0  0  0  0  0  0  0  0  0  0  0
   -1.5741    0.2559   -1.0150 C   0  0  0  0  0  0  0  0  0  0  0  0
   -2.9351    0.4292   -0.9293 C   0  0  0  0  0  0  0  0  0  0  0  0
   -3.5975    0.2949    0.2820 C   0  0  0  0  0  0  0  0  0  0  0  0
   -5.3203    0.5041    0.4559 Cl  0  0  0  0  0  0  0  0  0  0  0  0
   -2.7896   -0.0210    1.3821 C   0  0  0  0  0  0  0  0  0  0  0  0
   -1.4281   -0.1924    1.2891 C   0  0  0  0  0  0  0  0  0  0  0  0
  1  2  1  0
  2  3  1  0
  3  4  2  0
  4  5  1  0
  5  6  1  0
  5  7  2  0
  7  8  1  0
  8  9  1  0
  8 10  2  0
 10 11  1  0
 11 12  2  0
 12 13  1  0
 13 14  2  0
 14 15  1  0
 14 16  1  0
 16 17  2  0
 10  3  1  0
 17 11  1  0
M  END
>  <zinc_id>  (49) 
ZINC000000057464

>  <ortholog_name>  (49) 
DRTS_PLAFK

>  <gene_name>  (49) 
DRTS_PLAFK

>  <affinity>  (49) 
9.22

>  <chembldocid>  (49) 
17662

>  <title>  (49) 
None

>  <reference.pubmed_id>  (49) 
14736247

>  <reference.doi>  (49) 
None

>  <reference.chembl_id>  (49) 
CHEMBL1138835

>  <reference.journal>  (49) 
J. Med. Chem.

>  <reference.year>  (49) 
2004

$$$$

     RDKit          3D

 17 18  0  0  0  0  0  0  0  0999 V2000
    0.4353    2.7611    0.6620 C   0  0  0  0  0  0  0  0  0  0  0  0
    0.8390    2.1111   -0.6197 C   0  0  0  0  0  0  0  0  0  0  0  0
    1.4944    0.7898   -0.3759 C   0  0  0  0  0  0  0  0  0  0  0  0
    2.7984    0.6160   -0.4688 N   0  0  0  0  0  0  0  0  0  0  0  0
    3.3263   -0.6158   -0.2405 C   0  0  0  0  0  0  0  0  0  0  0  0
    4.7518   -0.8428   -0.3322 N   0  0  0  0  0  0  0  0  0  0  0  0
    2.5374   -1.6499    0.0784 N   0  0  0  0  0  0  0  0  0  0  0  0
    1.2119   -1.5129    0.1815 C   0  0  0  0  0  0  0  0  0  0  0  0
    0.3531   -2.6049    0.5265 N   0  0  0  0  0  0  0  0  0  0  0  0
    0.6756   -0.2625   -0.0511 C   0  0  0  0  0  0  0  0  0  0  0  0
   -0.7785   -0.0599    0.0807 C   0  0  0  0  0  0  0  0  0  0  0  0
   -1.5741    0.2559   -1.0150 C   0  0  0  0  0  0  0  0  0  0  0  0
   -2.9351    0.4292   -0.9293 C   0  0  0  0  0  0  0  0  0  0  0  0
   -3.5975    0.2949    0.2820 C   0  0  0  0  0  0  0  0  0  0  0  0
   -5.3203    0.5041    0.4559 Cl  0  0  0  0  0  0  0  0  0  0  0  0
   -2.7896   -0.0210    1.3821 C   0  0  0  0  0  0  0  0  0  0  0  0
   -1.4281   -0.1924    1.2891 C   0  0  0  0  0  0  0  0  0  0  0  0
  1  2  1  0
  2  3  1  0
  3  4  2  0
  4  5  1  0
  5  6  1  0
  5  7  2  0
  7  8  1  0
  8  9  1  0
  8 10  2  0
 10 11  1  0
 11 12  2  0
 12 13  1  0
 13 14  2  0
 14 15  1  0
 14 16  1  0
 16 17  2  0
 10  3  1  0
 17 11  1  0
M  END
>  <zinc_id>  (50) 
ZINC000000057464

>  <ortholog_name>  (50) 
DRTS_PLAFK

>  <gene_name>  (50) 
DRTS_PLAFK

>  <affinity>  (50) 
9.06

>  <chembldocid>  (50) 
21047

>  <title>  (50) 
None

>  <reference.pubmed_id>  (50) 
15293997

>  <reference.doi>  (50) 
None

>  <reference.chembl_id>  (50) 
CHEMBL1138679

>  <reference.journal>  (50) 
J. Med. Chem.

>  <reference.year>  (50) 
2004

$$$$

     RDKit          3D

 17 18  0  0  0  0  0  0  0  0999 V2000
    0.4353    2.7611    0.6620 C   0  0  0  0  0  0  0  0  0  0  0  0
    0.8390    2.1111   -0.6197 C   0  0  0  0  0  0  0  0  0  0  0  0
    1.4944    0.7898   -0.3759 C   0  0  0  0  0  0  0  0  0  0  0  0
    2.7984    0.6160   -0.4688 N   0  0  0  0  0  0  0  0  0  0  0  0
    3.3263   -0.6158   -0.2405 C   0  0  0  0  0  0  0  0  0  0  0  0
    4.7518   -0.8428   -0.3322 N   0  0  0  0  0  0  0  0  0  0  0  0
    2.5374   -1.6499    0.0784 N   0  0  0  0  0  0  0  0  0  0  0  0
    1.2119   -1.5129    0.1815 C   0  0  0  0  0  0  0  0  0  0  0  0
    0.3531   -2.6049    0.5265 N   0  0  0  0  0  0  0  0  0  0  0  0
    0.6756   -0.2625   -0.0511 C   0  0  0  0  0  0  0  0  0  0  0  0
   -0.7785   -0.0599    0.0807 C   0  0  0  0  0  0  0  0  0  0  0  0
   -1.5741    0.2559   -1.0150 C   0  0  0  0  0  0  0  0  0  0  0  0
   -2.9351    0.4292   -0.9293 C   0  0  0  0  0  0  0  0  0  0  0  0
   -3.5975    0.2949    0.2820 C   0  0  0  0  0  0  0  0  0  0  0  0
   -5.3203    0.5041    0.4559 Cl  0  0  0  0  0  0  0  0  0  0  0  0
   -2.7896   -0.0210    1.3821 C   0  0  0  0  0  0  0  0  0  0  0  0
   -1.4281   -0.1924    1.2891 C   0  0  0  0  0  0  0  0  0  0  0  0
  1  2  1  0
  2  3  1  0
  3  4  2  0
  4  5  1  0
  5  6  1  0
  5  7  2  0
  7  8  1  0
  8  9  1  0
  8 10  2  0
 10 11  1  0
 11 12  2  0
 12 13  1  0
 13 14  2  0
 14 15  1  0
 14 16  1  0
 16 17  2  0
 10  3  1  0
 17 11  1  0
M  END
>  <zinc_id>  (51) 
ZINC000000057464

>  <ortholog_name>  (51) 
DRTS_PLAFK

>  <gene_name>  (51) 
DRTS_PLAFK

>  <affinity>  (51) 
8.85

>  <chembldocid>  (51) 
17071

>  <title>  (51) 
None

>  <reference.pubmed_id>  (51) 
12825927

>  <reference.doi>  (51) 
None

>  <reference.chembl_id>  (51) 
CHEMBL1145823

>  <reference.journal>  (51) 
J. Med. Chem.

>  <reference.year>  (51) 
2003

$$$$

     RDKit          3D

 17 18  0  0  0  0  0  0  0  0999 V2000
    0.4353    2.7611    0.6620 C   0  0  0  0  0  0  0  0  0  0  0  0
    0.8390    2.1111   -0.6197 C   0  0  0  0  0  0  0  0  0  0  0  0
    1.4944    0.7898   -0.3759 C   0  0  0  0  0  0  0  0  0  0  0  0
    2.7984    0.6160   -0.4688 N   0  0  0  0  0  0  0  0  0  0  0  0
    3.3263   -0.6158   -0.2405 C   0  0  0  0  0  0  0  0  0  0  0  0
    4.7518   -0.8428   -0.3322 N   0  0  0  0  0  0  0  0  0  0  0  0
    2.5374   -1.6499    0.0784 N   0  0  0  0  0  0  0  0  0  0  0  0
    1.2119   -1.5129    0.1815 C   0  0  0  0  0  0  0  0  0  0  0  0
    0.3531   -2.6049    0.5265 N   0  0  0  0  0  0  0  0  0  0  0  0
    0.6756   -0.2625   -0.0511 C   0  0  0  0  0  0  0  0  0  0  0  0
   -0.7785   -0.0599    0.0807 C   0  0  0  0  0  0  0  0  0  0  0  0
   -1.5741    0.2559   -1.0150 C   0  0  0  0  0  0  0  0  0  0  0  0
   -2.9351    0.4292   -0.9293 C   0  0  0  0  0  0  0  0  0  0  0  0
   -3.5975    0.2949    0.2820 C   0  0  0  0  0  0  0  0  0  0  0  0
   -5.3203    0.5041    0.4559 Cl  0  0  0  0  0  0  0  0  0  0  0  0
   -2.7896   -0.0210    1.3821 C   0  0  0  0  0  0  0  0  0  0  0  0
   -1.4281   -0.1924    1.2891 C   0  0  0  0  0  0  0  0  0  0  0  0
  1  2  1  0
  2  3  1  0
  3  4  2  0
  4  5  1  0
  5  6  1  0
  5  7  2  0
  7  8  1  0
  8  9  1  0
  8 10  2  0
 10 11  1  0
 11 12  2  0
 12 13  1  0
 13 14  2  0
 14 15  1  0
 14 16  1  0
 16 17  2  0
 10  3  1  0
 17 11  1  0
M  END
>  <zinc_id>  (52) 
ZINC000000057464

>  <ortholog_name>  (52) 
DRTS_PLAFK

>  <gene_name>  (52) 
DRTS_PLAFK

>  <affinity>  (52) 
8.82

>  <chembldocid>  (52) 
14888

>  <title>  (52) 
None

>  <reference.pubmed_id>  (52) 
9554869

>  <reference.doi>  (52) 
None

>  <reference.chembl_id>  (52) 
CHEMBL1131602

>  <reference.journal>  (52) 
J. Med. Chem.

>  <reference.year>  (52) 
1998

$$$$

     RDKit          3D

 17 18  0  0  0  0  0  0  0  0999 V2000
    0.4353    2.7611    0.6620 C   0  0  0  0  0  0  0  0  0  0  0  0
    0.8390    2.1111   -0.6197 C   0  0  0  0  0  0  0  0  0  0  0  0
    1.4944    0.7898   -0.3759 C   0  0  0  0  0  0  0  0  0  0  0  0
    2.7984    0.6160   -0.4688 N   0  0  0  0  0  0  0  0  0  0  0  0
    3.3263   -0.6158   -0.2405 C   0  0  0  0  0  0  0  0  0  0  0  0
    4.7518   -0.8428   -0.3322 N   0  0  0  0  0  0  0  0  0  0  0  0
    2.5374   -1.6499    0.0784 N   0  0  0  0  0  0  0  0  0  0  0  0
    1.2119   -1.5129    0.1815 C   0  0  0  0  0  0  0  0  0  0  0  0
    0.3531   -2.6049    0.5265 N   0  0  0  0  0  0  0  0  0  0  0  0
    0.6756   -0.2625   -0.0511 C   0  0  0  0  0  0  0  0  0  0  0  0
   -0.7785   -0.0599    0.0807 C   0  0  0  0  0  0  0  0  0  0  0  0
   -1.5741    0.2559   -1.0150 C   0  0  0  0  0  0  0  0  0  0  0  0
   -2.9351    0.4292   -0.9293 C   0  0  0  0  0  0  0  0  0  0  0  0
   -3.5975    0.2949    0.2820 C   0  0  0  0  0  0  0  0  0  0  0  0
   -5.3203    0.5041    0.4559 Cl  0  0  0  0  0  0  0  0  0  0  0  0
   -2.7896   -0.0210    1.3821 C   0  0  0  0  0  0  0  0  0  0  0  0
   -1.4281   -0.1924    1.2891 C   0  0  0  0  0  0  0  0  0  0  0  0
  1  2  1  0
  2  3  1  0
  3  4  2  0
  4  5  1  0
  5  6  1  0
  5  7  2  0
  7  8  1  0
  8  9  1  0
  8 10  2  0
 10 11  1  0
 11 12  2  0
 12 13  1  0
 13 14  2  0
 14 15  1  0
 14 16  1  0
 16 17  2  0
 10  3  1  0
 17 11  1  0
M  END
>  <zinc_id>  (53) 
ZINC000000057464

>  <ortholog_name>  (53) 
DRTS_PLAFK

>  <gene_name>  (53) 
DRTS_PLAFK

>  <affinity>  (53) 
8.82

>  <chembldocid>  (53) 
17071

>  <title>  (53) 
None

>  <reference.pubmed_id>  (53) 
12825927

>  <reference.doi>  (53) 
None

>  <reference.chembl_id>  (53) 
CHEMBL1145823

>  <reference.journal>  (53) 
J. Med. Chem.

>  <reference.year>  (53) 
2003

$$$$

     RDKit          3D

 17 18  0  0  0  0  0  0  0  0999 V2000
    0.4353    2.7611    0.6620 C   0  0  0  0  0  0  0  0  0  0  0  0
    0.8390    2.1111   -0.6197 C   0  0  0  0  0  0  0  0  0  0  0  0
    1.4944    0.7898   -0.3759 C   0  0  0  0  0  0  0  0  0  0  0  0
    2.7984    0.6160   -0.4688 N   0  0  0  0  0  0  0  0  0  0  0  0
    3.3263   -0.6158   -0.2405 C   0  0  0  0  0  0  0  0  0  0  0  0
    4.7518   -0.8428   -0.3322 N   0  0  0  0  0  0  0  0  0  0  0  0
    2.5374   -1.6499    0.0784 N   0  0  0  0  0  0  0  0  0  0  0  0
    1.2119   -1.5129    0.1815 C   0  0  0  0  0  0  0  0  0  0  0  0
    0.3531   -2.6049    0.5265 N   0  0  0  0  0  0  0  0  0  0  0  0
    0.6756   -0.2625   -0.0511 C   0  0  0  0  0  0  0  0  0  0  0  0
   -0.7785   -0.0599    0.0807 C   0  0  0  0  0  0  0  0  0  0  0  0
   -1.5741    0.2559   -1.0150 C   0  0  0  0  0  0  0  0  0  0  0  0
   -2.9351    0.4292   -0.9293 C   0  0  0  0  0  0  0  0  0  0  0  0
   -3.5975    0.2949    0.2820 C   0  0  0  0  0  0  0  0  0  0  0  0
   -5.3203    0.5041    0.4559 Cl  0  0  0  0  0  0  0  0  0  0  0  0
   -2.7896   -0.0210    1.3821 C   0  0  0  0  0  0  0  0  0  0  0  0
   -1.4281   -0.1924    1.2891 C   0  0  0  0  0  0  0  0  0  0  0  0
  1  2  1  0
  2  3  1  0
  3  4  2  0
  4  5  1  0
  5  6  1  0
  5  7  2  0
  7  8  1  0
  8  9  1  0
  8 10  2  0
 10 11  1  0
 11 12  2  0
 12 13  1  0
 13 14  2  0
 14 15  1  0
 14 16  1  0
 16 17  2  0
 10  3  1  0
 17 11  1  0
M  END
>  <zinc_id>  (54) 
ZINC000000057464

>  <ortholog_name>  (54) 
DRTS_PLAFK

>  <gene_name>  (54) 
DRTS_PLAFK

>  <affinity>  (54) 
6.95

>  <chembldocid>  (54) 
17662

>  <title>  (54) 
None

>  <reference.pubmed_id>  (54) 
14736247

>  <reference.doi>  (54) 
None

>  <reference.chembl_id>  (54) 
CHEMBL1138835

>  <reference.journal>  (54) 
J. Med. Chem.

>  <reference.year>  (54) 
2004

$$$$

     RDKit          3D

 17 18  0  0  0  0  0  0  0  0999 V2000
    0.4353    2.7611    0.6620 C   0  0  0  0  0  0  0  0  0  0  0  0
    0.8390    2.1111   -0.6197 C   0  0  0  0  0  0  0  0  0  0  0  0
    1.4944    0.7898   -0.3759 C   0  0  0  0  0  0  0  0  0  0  0  0
    2.7984    0.6160   -0.4688 N   0  0  0  0  0  0  0  0  0  0  0  0
    3.3263   -0.6158   -0.2405 C   0  0  0  0  0  0  0  0  0  0  0  0
    4.7518   -0.8428   -0.3322 N   0  0  0  0  0  0  0  0  0  0  0  0
    2.5374   -1.6499    0.0784 N   0  0  0  0  0  0  0  0  0  0  0  0
    1.2119   -1.5129    0.1815 C   0  0  0  0  0  0  0  0  0  0  0  0
    0.3531   -2.6049    0.5265 N   0  0  0  0  0  0  0  0  0  0  0  0
    0.6756   -0.2625   -0.0511 C   0  0  0  0  0  0  0  0  0  0  0  0
   -0.7785   -0.0599    0.0807 C   0  0  0  0  0  0  0  0  0  0  0  0
   -1.5741    0.2559   -1.0150 C   0  0  0  0  0  0  0  0  0  0  0  0
   -2.9351    0.4292   -0.9293 C   0  0  0  0  0  0  0  0  0  0  0  0
   -3.5975    0.2949    0.2820 C   0  0  0  0  0  0  0  0  0  0  0  0
   -5.3203    0.5041    0.4559 Cl  0  0  0  0  0  0  0  0  0  0  0  0
   -2.7896   -0.0210    1.3821 C   0  0  0  0  0  0  0  0  0  0  0  0
   -1.4281   -0.1924    1.2891 C   0  0  0  0  0  0  0  0  0  0  0  0
  1  2  1  0
  2  3  1  0
  3  4  2  0
  4  5  1  0
  5  6  1  0
  5  7  2  0
  7  8  1  0
  8  9  1  0
  8 10  2  0
 10 11  1  0
 11 12  2  0
 12 13  1  0
 13 14  2  0
 14 15  1  0
 14 16  1  0
 16 17  2  0
 10  3  1  0
 17 11  1  0
M  END
>  <zinc_id>  (55) 
ZINC000000057464

>  <ortholog_name>  (55) 
DRTS_PLAFK

>  <gene_name>  (55) 
DRTS_PLAFK

>  <affinity>  (55) 
8.70

>  <chembldocid>  (55) 
11357

>  <title>  (55) 
None

>  <reference.pubmed_id>  (55) 
1495020

>  <reference.doi>  (55) 
None

>  <reference.chembl_id>  (55) 
CHEMBL1125508

>  <reference.journal>  (55) 
J. Med. Chem.

>  <reference.year>  (55) 
1992

$$$$

     RDKit          3D

 17 18  0  0  0  0  0  0  0  0999 V2000
    0.4353    2.7611    0.6620 C   0  0  0  0  0  0  0  0  0  0  0  0
    0.8390    2.1111   -0.6197 C   0  0  0  0  0  0  0  0  0  0  0  0
    1.4944    0.7898   -0.3759 C   0  0  0  0  0  0  0  0  0  0  0  0
    2.7984    0.6160   -0.4688 N   0  0  0  0  0  0  0  0  0  0  0  0
    3.3263   -0.6158   -0.2405 C   0  0  0  0  0  0  0  0  0  0  0  0
    4.7518   -0.8428   -0.3322 N   0  0  0  0  0  0  0  0  0  0  0  0
    2.5374   -1.6499    0.0784 N   0  0  0  0  0  0  0  0  0  0  0  0
    1.2119   -1.5129    0.1815 C   0  0  0  0  0  0  0  0  0  0  0  0
    0.3531   -2.6049    0.5265 N   0  0  0  0  0  0  0  0  0  0  0  0
    0.6756   -0.2625   -0.0511 C   0  0  0  0  0  0  0  0  0  0  0  0
   -0.7785   -0.0599    0.0807 C   0  0  0  0  0  0  0  0  0  0  0  0
   -1.5741    0.2559   -1.0150 C   0  0  0  0  0  0  0  0  0  0  0  0
   -2.9351    0.4292   -0.9293 C   0  0  0  0  0  0  0  0  0  0  0  0
   -3.5975    0.2949    0.2820 C   0  0  0  0  0  0  0  0  0  0  0  0
   -5.3203    0.5041    0.4559 Cl  0  0  0  0  0  0  0  0  0  0  0  0
   -2.7896   -0.0210    1.3821 C   0  0  0  0  0  0  0  0  0  0  0  0
   -1.4281   -0.1924    1.2891 C   0  0  0  0  0  0  0  0  0  0  0  0
  1  2  1  0
  2  3  1  0
  3  4  2  0
  4  5  1  0
  5  6  1  0
  5  7  2  0
  7  8  1  0
  8  9  1  0
  8 10  2  0
 10 11  1  0
 11 12  2  0
 12 13  1  0
 13 14  2  0
 14 15  1  0
 14 16  1  0
 16 17  2  0
 10  3  1  0
 17 11  1  0
M  END
>  <zinc_id>  (56) 
ZINC000000057464

>  <ortholog_name>  (56) 
DRTS_PLAFK

>  <gene_name>  (56) 
DRTS_PLAFK

>  <affinity>  (56) 
7.54

>  <chembldocid>  (56) 
16871

>  <title>  (56) 
None

>  <reference.pubmed_id>  (56) 
11881993

>  <reference.doi>  (56) 
None

>  <reference.chembl_id>  (56) 
CHEMBL1135602

>  <reference.journal>  (56) 
J. Med. Chem.

>  <reference.year>  (56) 
2002

$$$$

     RDKit          3D

 17 18  0  0  0  0  0  0  0  0999 V2000
    0.4353    2.7611    0.6620 C   0  0  0  0  0  0  0  0  0  0  0  0
    0.8390    2.1111   -0.6197 C   0  0  0  0  0  0  0  0  0  0  0  0
    1.4944    0.7898   -0.3759 C   0  0  0  0  0  0  0  0  0  0  0  0
    2.7984    0.6160   -0.4688 N   0  0  0  0  0  0  0  0  0  0  0  0
    3.3263   -0.6158   -0.2405 C   0  0  0  0  0  0  0  0  0  0  0  0
    4.7518   -0.8428   -0.3322 N   0  0  0  0  0  0  0  0  0  0  0  0
    2.5374   -1.6499    0.0784 N   0  0  0  0  0  0  0  0  0  0  0  0
    1.2119   -1.5129    0.1815 C   0  0  0  0  0  0  0  0  0  0  0  0
    0.3531   -2.6049    0.5265 N   0  0  0  0  0  0  0  0  0  0  0  0
    0.6756   -0.2625   -0.0511 C   0  0  0  0  0  0  0  0  0  0  0  0
   -0.7785   -0.0599    0.0807 C   0  0  0  0  0  0  0  0  0  0  0  0
   -1.5741    0.2559   -1.0150 C   0  0  0  0  0  0  0  0  0  0  0  0
   -2.9351    0.4292   -0.9293 C   0  0  0  0  0  0  0  0  0  0  0  0
   -3.5975    0.2949    0.2820 C   0  0  0  0  0  0  0  0  0  0  0  0
   -5.3203    0.5041    0.4559 Cl  0  0  0  0  0  0  0  0  0  0  0  0
   -2.7896   -0.0210    1.3821 C   0  0  0  0  0  0  0  0  0  0  0  0
   -1.4281   -0.1924    1.2891 C   0  0  0  0  0  0  0  0  0  0  0  0
  1  2  1  0
  2  3  1  0
  3  4  2  0
  4  5  1  0
  5  6  1  0
  5  7  2  0
  7  8  1  0
  8  9  1  0
  8 10  2  0
 10 11  1  0
 11 12  2  0
 12 13  1  0
 13 14  2  0
 14 15  1  0
 14 16  1  0
 16 17  2  0
 10  3  1  0
 17 11  1  0
M  END
>  <zinc_id>  (57) 
ZINC000000057464

>  <ortholog_name>  (57) 
DRTS_PLAFK

>  <gene_name>  (57) 
DRTS_PLAFK

>  <affinity>  (57) 
8.44

>  <chembldocid>  (57) 
17071

>  <title>  (57) 
None

>  <reference.pubmed_id>  (57) 
12825927

>  <reference.doi>  (57) 
None

>  <reference.chembl_id>  (57) 
CHEMBL1145823

>  <reference.journal>  (57) 
J. Med. Chem.

>  <reference.year>  (57) 
2003

$$$$

     RDKit          3D

 17 18  0  0  0  0  0  0  0  0999 V2000
    0.4353    2.7611    0.6620 C   0  0  0  0  0  0  0  0  0  0  0  0
    0.8390    2.1111   -0.6197 C   0  0  0  0  0  0  0  0  0  0  0  0
    1.4944    0.7898   -0.3759 C   0  0  0  0  0  0  0  0  0  0  0  0
    2.7984    0.6160   -0.4688 N   0  0  0  0  0  0  0  0  0  0  0  0
    3.3263   -0.6158   -0.2405 C   0  0  0  0  0  0  0  0  0  0  0  0
    4.7518   -0.8428   -0.3322 N   0  0  0  0  0  0  0  0  0  0  0  0
    2.5374   -1.6499    0.0784 N   0  0  0  0  0  0  0  0  0  0  0  0
    1.2119   -1.5129    0.1815 C   0  0  0  0  0  0  0  0  0  0  0  0
    0.3531   -2.6049    0.5265 N   0  0  0  0  0  0  0  0  0  0  0  0
    0.6756   -0.2625   -0.0511 C   0  0  0  0  0  0  0  0  0  0  0  0
   -0.7785   -0.0599    0.0807 C   0  0  0  0  0  0  0  0  0  0  0  0
   -1.5741    0.2559   -1.0150 C   0  0  0  0  0  0  0  0  0  0  0  0
   -2.9351    0.4292   -0.9293 C   0  0  0  0  0  0  0  0  0  0  0  0
   -3.5975    0.2949    0.2820 C   0  0  0  0  0  0  0  0  0  0  0  0
   -5.3203    0.5041    0.4559 Cl  0  0  0  0  0  0  0  0  0  0  0  0
   -2.7896   -0.0210    1.3821 C   0  0  0  0  0  0  0  0  0  0  0  0
   -1.4281   -0.1924    1.2891 C   0  0  0  0  0  0  0  0  0  0  0  0
  1  2  1  0
  2  3  1  0
  3  4  2  0
  4  5  1  0
  5  6  1  0
  5  7  2  0
  7  8  1  0
  8  9  1  0
  8 10  2  0
 10 11  1  0
 11 12  2  0
 12 13  1  0
 13 14  2  0
 14 15  1  0
 14 16  1  0
 16 17  2  0
 10  3  1  0
 17 11  1  0
M  END
>  <zinc_id>  (58) 
ZINC000000057464

>  <ortholog_name>  (58) 
DRTS_PLAFK

>  <gene_name>  (58) 
DRTS_PLAFK

>  <affinity>  (58) 
6.42

>  <chembldocid>  (58) 
17071

>  <title>  (58) 
None

>  <reference.pubmed_id>  (58) 
12825927

>  <reference.doi>  (58) 
None

>  <reference.chembl_id>  (58) 
CHEMBL1145823

>  <reference.journal>  (58) 
J. Med. Chem.

>  <reference.year>  (58) 
2003

$$$$

     RDKit          3D

 17 18  0  0  0  0  0  0  0  0999 V2000
    0.4353    2.7611    0.6620 C   0  0  0  0  0  0  0  0  0  0  0  0
    0.8390    2.1111   -0.6197 C   0  0  0  0  0  0  0  0  0  0  0  0
    1.4944    0.7898   -0.3759 C   0  0  0  0  0  0  0  0  0  0  0  0
    2.7984    0.6160   -0.4688 N   0  0  0  0  0  0  0  0  0  0  0  0
    3.3263   -0.6158   -0.2405 C   0  0  0  0  0  0  0  0  0  0  0  0
    4.7518   -0.8428   -0.3322 N   0  0  0  0  0  0  0  0  0  0  0  0
    2.5374   -1.6499    0.0784 N   0  0  0  0  0  0  0  0  0  0  0  0
    1.2119   -1.5129    0.1815 C   0  0  0  0  0  0  0  0  0  0  0  0
    0.3531   -2.6049    0.5265 N   0  0  0  0  0  0  0  0  0  0  0  0
    0.6756   -0.2625   -0.0511 C   0  0  0  0  0  0  0  0  0  0  0  0
   -0.7785   -0.0599    0.0807 C   0  0  0  0  0  0  0  0  0  0  0  0
   -1.5741    0.2559   -1.0150 C   0  0  0  0  0  0  0  0  0  0  0  0
   -2.9351    0.4292   -0.9293 C   0  0  0  0  0  0  0  0  0  0  0  0
   -3.5975    0.2949    0.2820 C   0  0  0  0  0  0  0  0  0  0  0  0
   -5.3203    0.5041    0.4559 Cl  0  0  0  0  0  0  0  0  0  0  0  0
   -2.7896   -0.0210    1.3821 C   0  0  0  0  0  0  0  0  0  0  0  0
   -1.4281   -0.1924    1.2891 C   0  0  0  0  0  0  0  0  0  0  0  0
  1  2  1  0
  2  3  1  0
  3  4  2  0
  4  5  1  0
  5  6  1  0
  5  7  2  0
  7  8  1  0
  8  9  1  0
  8 10  2  0
 10 11  1  0
 11 12  2  0
 12 13  1  0
 13 14  2  0
 14 15  1  0
 14 16  1  0
 16 17  2  0
 10  3  1  0
 17 11  1  0
M  END
>  <zinc_id>  (59) 
ZINC000000057464

>  <ortholog_name>  (59) 
DRTS_PLAFK

>  <gene_name>  (59) 
DRTS_PLAFK

>  <affinity>  (59) 
6.41

>  <chembldocid>  (59) 
17662

>  <title>  (59) 
None

>  <reference.pubmed_id>  (59) 
14736247

>  <reference.doi>  (59) 
None

>  <reference.chembl_id>  (59) 
CHEMBL1138835

>  <reference.journal>  (59) 
J. Med. Chem.

>  <reference.year>  (59) 
2004

$$$$

     RDKit          3D

 17 18  0  0  0  0  0  0  0  0999 V2000
    0.4353    2.7611    0.6620 C   0  0  0  0  0  0  0  0  0  0  0  0
    0.8390    2.1111   -0.6197 C   0  0  0  0  0  0  0  0  0  0  0  0
    1.4944    0.7898   -0.3759 C   0  0  0  0  0  0  0  0  0  0  0  0
    2.7984    0.6160   -0.4688 N   0  0  0  0  0  0  0  0  0  0  0  0
    3.3263   -0.6158   -0.2405 C   0  0  0  0  0  0  0  0  0  0  0  0
    4.7518   -0.8428   -0.3322 N   0  0  0  0  0  0  0  0  0  0  0  0
    2.5374   -1.6499    0.0784 N   0  0  0  0  0  0  0  0  0  0  0  0
    1.2119   -1.5129    0.1815 C   0  0  0  0  0  0  0  0  0  0  0  0
    0.3531   -2.6049    0.5265 N   0  0  0  0  0  0  0  0  0  0  0  0
    0.6756   -0.2625   -0.0511 C   0  0  0  0  0  0  0  0  0  0  0  0
   -0.7785   -0.0599    0.0807 C   0  0  0  0  0  0  0  0  0  0  0  0
   -1.5741    0.2559   -1.0150 C   0  0  0  0  0  0  0  0  0  0  0  0
   -2.9351    0.4292   -0.9293 C   0  0  0  0  0  0  0  0  0  0  0  0
   -3.5975    0.2949    0.2820 C   0  0  0  0  0  0  0  0  0  0  0  0
   -5.3203    0.5041    0.4559 Cl  0  0  0  0  0  0  0  0  0  0  0  0
   -2.7896   -0.0210    1.3821 C   0  0  0  0  0  0  0  0  0  0  0  0
   -1.4281   -0.1924    1.2891 C   0  0  0  0  0  0  0  0  0  0  0  0
  1  2  1  0
  2  3  1  0
  3  4  2  0
  4  5  1  0
  5  6  1  0
  5  7  2  0
  7  8  1  0
  8  9  1  0
  8 10  2  0
 10 11  1  0
 11 12  2  0
 12 13  1  0
 13 14  2  0
 14 15  1  0
 14 16  1  0
 16 17  2  0
 10  3  1  0
 17 11  1  0
M  END
>  <zinc_id>  (60) 
ZINC000000057464

>  <ortholog_name>  (60) 
DRTS_PLAFK

>  <gene_name>  (60) 
DRTS_PLAFK

>  <affinity>  (60) 
7.27

>  <chembldocid>  (60) 
16871

>  <title>  (60) 
None

>  <reference.pubmed_id>  (60) 
11881993

>  <reference.doi>  (60) 
None

>  <reference.chembl_id>  (60) 
CHEMBL1135602

>  <reference.journal>  (60) 
J. Med. Chem.

>  <reference.year>  (60) 
2002

$$$$

     RDKit          3D

 17 18  0  0  0  0  0  0  0  0999 V2000
    0.4353    2.7611    0.6620 C   0  0  0  0  0  0  0  0  0  0  0  0
    0.8390    2.1111   -0.6197 C   0  0  0  0  0  0  0  0  0  0  0  0
    1.4944    0.7898   -0.3759 C   0  0  0  0  0  0  0  0  0  0  0  0
    2.7984    0.6160   -0.4688 N   0  0  0  0  0  0  0  0  0  0  0  0
    3.3263   -0.6158   -0.2405 C   0  0  0  0  0  0  0  0  0  0  0  0
    4.7518   -0.8428   -0.3322 N   0  0  0  0  0  0  0  0  0  0  0  0
    2.5374   -1.6499    0.0784 N   0  0  0  0  0  0  0  0  0  0  0  0
    1.2119   -1.5129    0.1815 C   0  0  0  0  0  0  0  0  0  0  0  0
    0.3531   -2.6049    0.5265 N   0  0  0  0  0  0  0  0  0  0  0  0
    0.6756   -0.2625   -0.0511 C   0  0  0  0  0  0  0  0  0  0  0  0
   -0.7785   -0.0599    0.0807 C   0  0  0  0  0  0  0  0  0  0  0  0
   -1.5741    0.2559   -1.0150 C   0  0  0  0  0  0  0  0  0  0  0  0
   -2.9351    0.4292   -0.9293 C   0  0  0  0  0  0  0  0  0  0  0  0
   -3.5975    0.2949    0.2820 C   0  0  0  0  0  0  0  0  0  0  0  0
   -5.3203    0.5041    0.4559 Cl  0  0  0  0  0  0  0  0  0  0  0  0
   -2.7896   -0.0210    1.3821 C   0  0  0  0  0  0  0  0  0  0  0  0
   -1.4281   -0.1924    1.2891 C   0  0  0  0  0  0  0  0  0  0  0  0
  1  2  1  0
  2  3  1  0
  3  4  2  0
  4  5  1  0
  5  6  1  0
  5  7  2  0
  7  8  1  0
  8  9  1  0
  8 10  2  0
 10 11  1  0
 11 12  2  0
 12 13  1  0
 13 14  2  0
 14 15  1  0
 14 16  1  0
 16 17  2  0
 10  3  1  0
 17 11  1  0
M  END
>  <zinc_id>  (61) 
ZINC000000057464

>  <ortholog_name>  (61) 
DRTS_PLAFK

>  <gene_name>  (61) 
DRTS_PLAFK

>  <affinity>  (61) 
8.22

>  <chembldocid>  (61) 
17071

>  <title>  (61) 
None

>  <reference.pubmed_id>  (61) 
12825927

>  <reference.doi>  (61) 
None

>  <reference.chembl_id>  (61) 
CHEMBL1145823

>  <reference.journal>  (61) 
J. Med. Chem.

>  <reference.year>  (61) 
2003

$$$$

     RDKit          3D

 17 18  0  0  0  0  0  0  0  0999 V2000
    0.4353    2.7611    0.6620 C   0  0  0  0  0  0  0  0  0  0  0  0
    0.8390    2.1111   -0.6197 C   0  0  0  0  0  0  0  0  0  0  0  0
    1.4944    0.7898   -0.3759 C   0  0  0  0  0  0  0  0  0  0  0  0
    2.7984    0.6160   -0.4688 N   0  0  0  0  0  0  0  0  0  0  0  0
    3.3263   -0.6158   -0.2405 C   0  0  0  0  0  0  0  0  0  0  0  0
    4.7518   -0.8428   -0.3322 N   0  0  0  0  0  0  0  0  0  0  0  0
    2.5374   -1.6499    0.0784 N   0  0  0  0  0  0  0  0  0  0  0  0
    1.2119   -1.5129    0.1815 C   0  0  0  0  0  0  0  0  0  0  0  0
    0.3531   -2.6049    0.5265 N   0  0  0  0  0  0  0  0  0  0  0  0
    0.6756   -0.2625   -0.0511 C   0  0  0  0  0  0  0  0  0  0  0  0
   -0.7785   -0.0599    0.0807 C   0  0  0  0  0  0  0  0  0  0  0  0
   -1.5741    0.2559   -1.0150 C   0  0  0  0  0  0  0  0  0  0  0  0
   -2.9351    0.4292   -0.9293 C   0  0  0  0  0  0  0  0  0  0  0  0
   -3.5975    0.2949    0.2820 C   0  0  0  0  0  0  0  0  0  0  0  0
   -5.3203    0.5041    0.4559 Cl  0  0  0  0  0  0  0  0  0  0  0  0
   -2.7896   -0.0210    1.3821 C   0  0  0  0  0  0  0  0  0  0  0  0
   -1.4281   -0.1924    1.2891 C   0  0  0  0  0  0  0  0  0  0  0  0
  1  2  1  0
  2  3  1  0
  3  4  2  0
  4  5  1  0
  5  6  1  0
  5  7  2  0
  7  8  1  0
  8  9  1  0
  8 10  2  0
 10 11  1  0
 11 12  2  0
 12 13  1  0
 13 14  2  0
 14 15  1  0
 14 16  1  0
 16 17  2  0
 10  3  1  0
 17 11  1  0
M  END
>  <zinc_id>  (62) 
ZINC000000057464

>  <ortholog_name>  (62) 
DRTS_PLAFK

>  <gene_name>  (62) 
DRTS_PLAFK

>  <affinity>  (62) 
7.17

>  <chembldocid>  (62) 
17662

>  <title>  (62) 
None

>  <reference.pubmed_id>  (62) 
14736247

>  <reference.doi>  (62) 
None

>  <reference.chembl_id>  (62) 
CHEMBL1138835

>  <reference.journal>  (62) 
J. Med. Chem.

>  <reference.year>  (62) 
2004

$$$$

     RDKit          3D

 17 18  0  0  0  0  0  0  0  0999 V2000
    0.4353    2.7611    0.6620 C   0  0  0  0  0  0  0  0  0  0  0  0
    0.8390    2.1111   -0.6197 C   0  0  0  0  0  0  0  0  0  0  0  0
    1.4944    0.7898   -0.3759 C   0  0  0  0  0  0  0  0  0  0  0  0
    2.7984    0.6160   -0.4688 N   0  0  0  0  0  0  0  0  0  0  0  0
    3.3263   -0.6158   -0.2405 C   0  0  0  0  0  0  0  0  0  0  0  0
    4.7518   -0.8428   -0.3322 N   0  0  0  0  0  0  0  0  0  0  0  0
    2.5374   -1.6499    0.0784 N   0  0  0  0  0  0  0  0  0  0  0  0
    1.2119   -1.5129    0.1815 C   0  0  0  0  0  0  0  0  0  0  0  0
    0.3531   -2.6049    0.5265 N   0  0  0  0  0  0  0  0  0  0  0  0
    0.6756   -0.2625   -0.0511 C   0  0  0  0  0  0  0  0  0  0  0  0
   -0.7785   -0.0599    0.0807 C   0  0  0  0  0  0  0  0  0  0  0  0
   -1.5741    0.2559   -1.0150 C   0  0  0  0  0  0  0  0  0  0  0  0
   -2.9351    0.4292   -0.9293 C   0  0  0  0  0  0  0  0  0  0  0  0
   -3.5975    0.2949    0.2820 C   0  0  0  0  0  0  0  0  0  0  0  0
   -5.3203    0.5041    0.4559 Cl  0  0  0  0  0  0  0  0  0  0  0  0
   -2.7896   -0.0210    1.3821 C   0  0  0  0  0  0  0  0  0  0  0  0
   -1.4281   -0.1924    1.2891 C   0  0  0  0  0  0  0  0  0  0  0  0
  1  2  1  0
  2  3  1  0
  3  4  2  0
  4  5  1  0
  5  6  1  0
  5  7  2  0
  7  8  1  0
  8  9  1  0
  8 10  2  0
 10 11  1  0
 11 12  2  0
 12 13  1  0
 13 14  2  0
 14 15  1  0
 14 16  1  0
 16 17  2  0
 10  3  1  0
 17 11  1  0
M  END
>  <zinc_id>  (63) 
ZINC000000057464

>  <ortholog_name>  (63) 
DRTS_PLAFK

>  <gene_name>  (63) 
DRTS_PLAFK

>  <affinity>  (63) 
7.14

>  <chembldocid>  (63) 
14888

>  <title>  (63) 
None

>  <reference.pubmed_id>  (63) 
9554869

>  <reference.doi>  (63) 
None

>  <reference.chembl_id>  (63) 
CHEMBL1131602

>  <reference.journal>  (63) 
J. Med. Chem.

>  <reference.year>  (63) 
1998

$$$$

     RDKit          3D

 17 18  0  0  0  0  0  0  0  0999 V2000
    0.4353    2.7611    0.6620 C   0  0  0  0  0  0  0  0  0  0  0  0
    0.8390    2.1111   -0.6197 C   0  0  0  0  0  0  0  0  0  0  0  0
    1.4944    0.7898   -0.3759 C   0  0  0  0  0  0  0  0  0  0  0  0
    2.7984    0.6160   -0.4688 N   0  0  0  0  0  0  0  0  0  0  0  0
    3.3263   -0.6158   -0.2405 C   0  0  0  0  0  0  0  0  0  0  0  0
    4.7518   -0.8428   -0.3322 N   0  0  0  0  0  0  0  0  0  0  0  0
    2.5374   -1.6499    0.0784 N   0  0  0  0  0  0  0  0  0  0  0  0
    1.2119   -1.5129    0.1815 C   0  0  0  0  0  0  0  0  0  0  0  0
    0.3531   -2.6049    0.5265 N   0  0  0  0  0  0  0  0  0  0  0  0
    0.6756   -0.2625   -0.0511 C   0  0  0  0  0  0  0  0  0  0  0  0
   -0.7785   -0.0599    0.0807 C   0  0  0  0  0  0  0  0  0  0  0  0
   -1.5741    0.2559   -1.0150 C   0  0  0  0  0  0  0  0  0  0  0  0
   -2.9351    0.4292   -0.9293 C   0  0  0  0  0  0  0  0  0  0  0  0
   -3.5975    0.2949    0.2820 C   0  0  0  0  0  0  0  0  0  0  0  0
   -5.3203    0.5041    0.4559 Cl  0  0  0  0  0  0  0  0  0  0  0  0
   -2.7896   -0.0210    1.3821 C   0  0  0  0  0  0  0  0  0  0  0  0
   -1.4281   -0.1924    1.2891 C   0  0  0  0  0  0  0  0  0  0  0  0
  1  2  1  0
  2  3  1  0
  3  4  2  0
  4  5  1  0
  5  6  1  0
  5  7  2  0
  7  8  1  0
  8  9  1  0
  8 10  2  0
 10 11  1  0
 11 12  2  0
 12 13  1  0
 13 14  2  0
 14 15  1  0
 14 16  1  0
 16 17  2  0
 10  3  1  0
 17 11  1  0
M  END
>  <zinc_id>  (64) 
ZINC000000057464

>  <ortholog_name>  (64) 
DRTS_PLAFK

>  <gene_name>  (64) 
DRTS_PLAFK

>  <affinity>  (64) 
7.10

>  <chembldocid>  (64) 
17662

>  <title>  (64) 
None

>  <reference.pubmed_id>  (64) 
14736247

>  <reference.doi>  (64) 
None

>  <reference.chembl_id>  (64) 
CHEMBL1138835

>  <reference.journal>  (64) 
J. Med. Chem.

>  <reference.year>  (64) 
2004

$$$$

     RDKit          3D

 17 18  0  0  0  0  0  0  0  0999 V2000
    0.4353    2.7611    0.6620 C   0  0  0  0  0  0  0  0  0  0  0  0
    0.8390    2.1111   -0.6197 C   0  0  0  0  0  0  0  0  0  0  0  0
    1.4944    0.7898   -0.3759 C   0  0  0  0  0  0  0  0  0  0  0  0
    2.7984    0.6160   -0.4688 N   0  0  0  0  0  0  0  0  0  0  0  0
    3.3263   -0.6158   -0.2405 C   0  0  0  0  0  0  0  0  0  0  0  0
    4.7518   -0.8428   -0.3322 N   0  0  0  0  0  0  0  0  0  0  0  0
    2.5374   -1.6499    0.0784 N   0  0  0  0  0  0  0  0  0  0  0  0
    1.2119   -1.5129    0.1815 C   0  0  0  0  0  0  0  0  0  0  0  0
    0.3531   -2.6049    0.5265 N   0  0  0  0  0  0  0  0  0  0  0  0
    0.6756   -0.2625   -0.0511 C   0  0  0  0  0  0  0  0  0  0  0  0
   -0.7785   -0.0599    0.0807 C   0  0  0  0  0  0  0  0  0  0  0  0
   -1.5741    0.2559   -1.0150 C   0  0  0  0  0  0  0  0  0  0  0  0
   -2.9351    0.4292   -0.9293 C   0  0  0  0  0  0  0  0  0  0  0  0
   -3.5975    0.2949    0.2820 C   0  0  0  0  0  0  0  0  0  0  0  0
   -5.3203    0.5041    0.4559 Cl  0  0  0  0  0  0  0  0  0  0  0  0
   -2.7896   -0.0210    1.3821 C   0  0  0  0  0  0  0  0  0  0  0  0
   -1.4281   -0.1924    1.2891 C   0  0  0  0  0  0  0  0  0  0  0  0
  1  2  1  0
  2  3  1  0
  3  4  2  0
  4  5  1  0
  5  6  1  0
  5  7  2  0
  7  8  1  0
  8  9  1  0
  8 10  2  0
 10 11  1  0
 11 12  2  0
 12 13  1  0
 13 14  2  0
 14 15  1  0
 14 16  1  0
 16 17  2  0
 10  3  1  0
 17 11  1  0
M  END
>  <zinc_id>  (65) 
ZINC000000057464

>  <ortholog_name>  (65) 
DRTS_PLAFK

>  <gene_name>  (65) 
DRTS_PLAFK

>  <affinity>  (65) 
7.10

>  <chembldocid>  (65) 
31502

>  <title>  (65) 
None

>  <reference.pubmed_id>  (65) 
16750361

>  <reference.doi>  (65) 
None

>  <reference.chembl_id>  (65) 
CHEMBL1145311

>  <reference.journal>  (65) 
Bioorg. Med. Chem. Lett.

>  <reference.year>  (65) 
2006

$$$$

     RDKit          3D

 17 18  0  0  0  0  0  0  0  0999 V2000
    0.4353    2.7611    0.6620 C   0  0  0  0  0  0  0  0  0  0  0  0
    0.8390    2.1111   -0.6197 C   0  0  0  0  0  0  0  0  0  0  0  0
    1.4944    0.7898   -0.3759 C   0  0  0  0  0  0  0  0  0  0  0  0
    2.7984    0.6160   -0.4688 N   0  0  0  0  0  0  0  0  0  0  0  0
    3.3263   -0.6158   -0.2405 C   0  0  0  0  0  0  0  0  0  0  0  0
    4.7518   -0.8428   -0.3322 N   0  0  0  0  0  0  0  0  0  0  0  0
    2.5374   -1.6499    0.0784 N   0  0  0  0  0  0  0  0  0  0  0  0
    1.2119   -1.5129    0.1815 C   0  0  0  0  0  0  0  0  0  0  0  0
    0.3531   -2.6049    0.5265 N   0  0  0  0  0  0  0  0  0  0  0  0
    0.6756   -0.2625   -0.0511 C   0  0  0  0  0  0  0  0  0  0  0  0
   -0.7785   -0.0599    0.0807 C   0  0  0  0  0  0  0  0  0  0  0  0
   -1.5741    0.2559   -1.0150 C   0  0  0  0  0  0  0  0  0  0  0  0
   -2.9351    0.4292   -0.9293 C   0  0  0  0  0  0  0  0  0  0  0  0
   -3.5975    0.2949    0.2820 C   0  0  0  0  0  0  0  0  0  0  0  0
   -5.3203    0.5041    0.4559 Cl  0  0  0  0  0  0  0  0  0  0  0  0
   -2.7896   -0.0210    1.3821 C   0  0  0  0  0  0  0  0  0  0  0  0
   -1.4281   -0.1924    1.2891 C   0  0  0  0  0  0  0  0  0  0  0  0
  1  2  1  0
  2  3  1  0
  3  4  2  0
  4  5  1  0
  5  6  1  0
  5  7  2  0
  7  8  1  0
  8  9  1  0
  8 10  2  0
 10 11  1  0
 11 12  2  0
 12 13  1  0
 13 14  2  0
 14 15  1  0
 14 16  1  0
 16 17  2  0
 10  3  1  0
 17 11  1  0
M  END
>  <zinc_id>  (66) 
ZINC000000057464

>  <ortholog_name>  (66) 
DRTS_PLAFK

>  <gene_name>  (66) 
DRTS_PLAFK

>  <affinity>  (66) 
6.07

>  <chembldocid>  (66) 
17071

>  <title>  (66) 
None

>  <reference.pubmed_id>  (66) 
12825927

>  <reference.doi>  (66) 
None

>  <reference.chembl_id>  (66) 
CHEMBL1145823

>  <reference.journal>  (66) 
J. Med. Chem.

>  <reference.year>  (66) 
2003

$$$$

     RDKit          3D

 19 20  0  0  0  0  0  0  0  0999 V2000
    5.8460    0.1693    2.1627 N   0  0  0  0  0  0  0  0  0  0  0  0
    4.8004    0.1687    1.2316 N   0  0  0  0  0  0  0  0  0  0  0  0
    5.1031    0.0124   -0.0218 C   0  0  0  0  0  0  0  0  0  0  0  0
    6.8110   -0.1977   -0.5547 S   0  0  0  0  0  0  0  0  0  0  0  0
    4.0307    0.0148   -0.9472 N   0  0  0  0  0  0  0  0  0  0  0  0
    2.6601    0.0060   -0.5679 C   0  0  0  0  0  0  0  0  0  0  0  0
    1.7214    0.0097   -1.5775 C   0  0  0  0  0  0  0  0  0  0  0  0
    0.3736    0.0017   -1.2957 C   0  0  0  0  0  0  0  0  0  0  0  0
   -0.0928   -0.0101    0.0030 C   0  0  0  0  0  0  0  0  0  0  0  0
   -1.4487   -0.0179    0.2700 O   0  0  0  0  0  0  0  0  0  0  0  0
   -2.3722   -0.0139   -0.7860 C   0  0  0  0  0  0  0  0  0  0  0  0
   -3.7661   -0.0238   -0.2627 C   0  0  0  0  0  0  0  0  0  0  0  0
   -4.4543    1.1443    0.0028 C   0  0  0  0  0  0  0  0  0  0  0  0
   -5.7394    1.1778    0.4856 C   0  0  0  0  0  0  0  0  0  0  0  0
   -6.3877   -0.0171    0.7219 C   0  0  0  0  0  0  0  0  0  0  0  0
   -5.7238   -1.1986    0.4655 C   0  0  0  0  0  0  0  0  0  0  0  0
   -4.4334   -1.2061   -0.0192 C   0  0  0  0  0  0  0  0  0  0  0  0
    0.8528   -0.0137    1.0070 C   0  0  0  0  0  0  0  0  0  0  0  0
    2.2193   -0.0057    0.7341 C   0  0  0  0  0  0  0  0  0  0  0  0
  1  2  1  0
  2  3  2  0
  3  4  1  0
  3  5  1  0
  5  6  1  0
  6  7  2  0
  7  8  1  0
  8  9  2  0
  9 10  1  0
 10 11  1  0
 11 12  1  0
 12 13  2  0
 13 14  1  0
 14 15  2  0
 15 16  1  0
 16 17  2  0
  9 18  1  0
 18 19  2  0
 19  6  1  0
 17 12  1  0
M  END
>  <zinc_id>  (67) 
ZINC000000128065

>  <ortholog_name>  (67) 
DRTS_PLAFK

>  <gene_name>  (67) 
DRTS_PLAFK

>  <affinity>  (67) 
5.70

>  <chembldocid>  (67) 
21047

>  <title>  (67) 
None

>  <reference.pubmed_id>  (67) 
15293997

>  <reference.doi>  (67) 
None

>  <reference.chembl_id>  (67) 
CHEMBL1138679

>  <reference.journal>  (67) 
J. Med. Chem.

>  <reference.year>  (67) 
2004

$$$$

     RDKit          3D

 19 20  0  0  0  0  0  0  0  0999 V2000
    5.8460    0.1693    2.1627 N   0  0  0  0  0  0  0  0  0  0  0  0
    4.8004    0.1687    1.2316 N   0  0  0  0  0  0  0  0  0  0  0  0
    5.1031    0.0124   -0.0218 C   0  0  0  0  0  0  0  0  0  0  0  0
    6.8110   -0.1977   -0.5547 S   0  0  0  0  0  0  0  0  0  0  0  0
    4.0307    0.0148   -0.9472 N   0  0  0  0  0  0  0  0  0  0  0  0
    2.6601    0.0060   -0.5679 C   0  0  0  0  0  0  0  0  0  0  0  0
    1.7214    0.0097   -1.5775 C   0  0  0  0  0  0  0  0  0  0  0  0
    0.3736    0.0017   -1.2957 C   0  0  0  0  0  0  0  0  0  0  0  0
   -0.0928   -0.0101    0.0030 C   0  0  0  0  0  0  0  0  0  0  0  0
   -1.4487   -0.0179    0.2700 O   0  0  0  0  0  0  0  0  0  0  0  0
   -2.3722   -0.0139   -0.7860 C   0  0  0  0  0  0  0  0  0  0  0  0
   -3.7661   -0.0238   -0.2627 C   0  0  0  0  0  0  0  0  0  0  0  0
   -4.4543    1.1443    0.0028 C   0  0  0  0  0  0  0  0  0  0  0  0
   -5.7394    1.1778    0.4856 C   0  0  0  0  0  0  0  0  0  0  0  0
   -6.3877   -0.0171    0.7219 C   0  0  0  0  0  0  0  0  0  0  0  0
   -5.7238   -1.1986    0.4655 C   0  0  0  0  0  0  0  0  0  0  0  0
   -4.4334   -1.2061   -0.0192 C   0  0  0  0  0  0  0  0  0  0  0  0
    0.8528   -0.0137    1.0070 C   0  0  0  0  0  0  0  0  0  0  0  0
    2.2193   -0.0057    0.7341 C   0  0  0  0  0  0  0  0  0  0  0  0
  1  2  1  0
  2  3  2  0
  3  4  1  0
  3  5  1  0
  5  6  1  0
  6  7  2  0
  7  8  1  0
  8  9  2  0
  9 10  1  0
 10 11  1  0
 11 12  1  0
 12 13  2  0
 13 14  1  0
 14 15  2  0
 15 16  1  0
 16 17  2  0
  9 18  1  0
 18 19  2  0
 19  6  1  0
 17 12  1  0
M  END
>  <zinc_id>  (68) 
ZINC000000128065

>  <ortholog_name>  (68) 
DRTS_PLAFK

>  <gene_name>  (68) 
DRTS_PLAFK

>  <affinity>  (68) 
5.28

>  <chembldocid>  (68) 
17071

>  <title>  (68) 
None

>  <reference.pubmed_id>  (68) 
12825927

>  <reference.doi>  (68) 
None

>  <reference.chembl_id>  (68) 
CHEMBL1145823

>  <reference.journal>  (68) 
J. Med. Chem.

>  <reference.year>  (68) 
2003

$$$$

     RDKit          3D

 17 18  0  0  0  0  0  0  0  0999 V2000
   -1.0981   -1.1506   -1.8654 C   0  0  0  0  0  0  0  0  0  0  0  0
   -1.3944   -1.0206   -0.3783 C   0  0  0  0  0  0  0  0  0  0  0  0
   -0.9743   -2.2877    0.3534 C   0  0  0  0  0  0  0  0  0  0  0  0
   -2.7789   -0.8175   -0.1778 N   0  0  0  0  0  0  0  0  0  0  0  0
   -3.2784    0.2144    0.3601 C   0  0  0  0  0  0  0  0  0  0  0  0
   -4.6946    0.3107    0.5110 N   0  0  0  0  0  0  0  0  0  0  0  0
   -2.4589    1.2691    0.8120 N   0  0  0  0  0  0  0  0  0  0  0  0
   -1.1838    1.2357    0.7020 C   0  0  0  0  0  0  0  0  0  0  0  0
   -0.3580    2.2774    1.1472 N   0  0  0  0  0  0  0  0  0  0  0  0
   -0.5849    0.0804    0.0969 N   0  0  0  0  0  0  0  0  0  0  0  0
    0.8283    0.0449   -0.0243 C   0  0  0  0  0  0  0  0  0  0  0  0
    1.4421    0.5405   -1.1400 C   0  0  0  0  0  0  0  0  0  0  0  0
    2.8371    0.4868   -1.2209 C   0  0  0  0  0  0  0  0  0  0  0  0
    3.6114   -0.0469   -0.2177 C   0  0  0  0  0  0  0  0  0  0  0  0
    5.5294   -0.1055   -0.3607 Br  0  0  0  0  0  0  0  0  0  0  0  0
    2.9750   -0.5428    0.9015 C   0  0  0  0  0  0  0  0  0  0  0  0
    1.5812   -0.4884    0.9810 C   0  0  0  0  0  0  0  0  0  0  0  0
  1  2  1  0
  2  3  1  0
  2  4  1  0
  4  5  2  0
  5  6  1  0
  5  7  1  0
  7  8  2  0
  8  9  1  0
  8 10  1  0
 10 11  1  0
 11 12  2  0
 12 13  1  0
 13 14  2  0
 14 15  1  0
 14 16  1  0
 16 17  2  0
 10  2  1  0
 17 11  1  0
M  END
>  <zinc_id>  (69) 
ZINC000000146421

>  <ortholog_name>  (69) 
DRTS_PLAFK

>  <gene_name>  (69) 
DRTS_PLAFK

>  <affinity>  (69) 
8.96

>  <chembldocid>  (69) 
15522

>  <title>  (69) 
None

>  <reference.pubmed_id>  (69) 
10893311

>  <reference.doi>  (69) 
None

>  <reference.chembl_id>  (69) 
CHEMBL1133696

>  <reference.journal>  (69) 
J. Med. Chem.

>  <reference.year>  (69) 
2000

$$$$

     RDKit          3D

 17 18  0  0  0  0  0  0  0  0999 V2000
   -1.0981   -1.1506   -1.8654 C   0  0  0  0  0  0  0  0  0  0  0  0
   -1.3944   -1.0206   -0.3783 C   0  0  0  0  0  0  0  0  0  0  0  0
   -0.9743   -2.2877    0.3534 C   0  0  0  0  0  0  0  0  0  0  0  0
   -2.7789   -0.8175   -0.1778 N   0  0  0  0  0  0  0  0  0  0  0  0
   -3.2784    0.2144    0.3601 C   0  0  0  0  0  0  0  0  0  0  0  0
   -4.6946    0.3107    0.5110 N   0  0  0  0  0  0  0  0  0  0  0  0
   -2.4589    1.2691    0.8120 N   0  0  0  0  0  0  0  0  0  0  0  0
   -1.1838    1.2357    0.7020 C   0  0  0  0  0  0  0  0  0  0  0  0
   -0.3580    2.2774    1.1472 N   0  0  0  0  0  0  0  0  0  0  0  0
   -0.5849    0.0804    0.0969 N   0  0  0  0  0  0  0  0  0  0  0  0
    0.8283    0.0449   -0.0243 C   0  0  0  0  0  0  0  0  0  0  0  0
    1.4421    0.5405   -1.1400 C   0  0  0  0  0  0  0  0  0  0  0  0
    2.8371    0.4868   -1.2209 C   0  0  0  0  0  0  0  0  0  0  0  0
    3.6114   -0.0469   -0.2177 C   0  0  0  0  0  0  0  0  0  0  0  0
    5.5294   -0.1055   -0.3607 Br  0  0  0  0  0  0  0  0  0  0  0  0
    2.9750   -0.5428    0.9015 C   0  0  0  0  0  0  0  0  0  0  0  0
    1.5812   -0.4884    0.9810 C   0  0  0  0  0  0  0  0  0  0  0  0
  1  2  1  0
  2  3  1  0
  2  4  1  0
  4  5  2  0
  5  6  1  0
  5  7  1  0
  7  8  2  0
  8  9  1  0
  8 10  1  0
 10 11  1  0
 11 12  2  0
 12 13  1  0
 13 14  2  0
 14 15  1  0
 14 16  1  0
 16 17  2  0
 10  2  1  0
 17 11  1  0
M  END
>  <zinc_id>  (70) 
ZINC000000146421

>  <ortholog_name>  (70) 
DRTS_PLAFK

>  <gene_name>  (70) 
DRTS_PLAFK

>  <affinity>  (70) 
8.92

>  <chembldocid>  (70) 
21047

>  <title>  (70) 
None

>  <reference.pubmed_id>  (70) 
15293997

>  <reference.doi>  (70) 
None

>  <reference.chembl_id>  (70) 
CHEMBL1138679

>  <reference.journal>  (70) 
J. Med. Chem.

>  <reference.year>  (70) 
2004

$$$$

     RDKit          3D

 17 18  0  0  0  0  0  0  0  0999 V2000
   -1.0981   -1.1506   -1.8654 C   0  0  0  0  0  0  0  0  0  0  0  0
   -1.3944   -1.0206   -0.3783 C   0  0  0  0  0  0  0  0  0  0  0  0
   -0.9743   -2.2877    0.3534 C   0  0  0  0  0  0  0  0  0  0  0  0
   -2.7789   -0.8175   -0.1778 N   0  0  0  0  0  0  0  0  0  0  0  0
   -3.2784    0.2144    0.3601 C   0  0  0  0  0  0  0  0  0  0  0  0
   -4.6946    0.3107    0.5110 N   0  0  0  0  0  0  0  0  0  0  0  0
   -2.4589    1.2691    0.8120 N   0  0  0  0  0  0  0  0  0  0  0  0
   -1.1838    1.2357    0.7020 C   0  0  0  0  0  0  0  0  0  0  0  0
   -0.3580    2.2774    1.1472 N   0  0  0  0  0  0  0  0  0  0  0  0
   -0.5849    0.0804    0.0969 N   0  0  0  0  0  0  0  0  0  0  0  0
    0.8283    0.0449   -0.0243 C   0  0  0  0  0  0  0  0  0  0  0  0
    1.4421    0.5405   -1.1400 C   0  0  0  0  0  0  0  0  0  0  0  0
    2.8371    0.4868   -1.2209 C   0  0  0  0  0  0  0  0  0  0  0  0
    3.6114   -0.0469   -0.2177 C   0  0  0  0  0  0  0  0  0  0  0  0
    5.5294   -0.1055   -0.3607 Br  0  0  0  0  0  0  0  0  0  0  0  0
    2.9750   -0.5428    0.9015 C   0  0  0  0  0  0  0  0  0  0  0  0
    1.5812   -0.4884    0.9810 C   0  0  0  0  0  0  0  0  0  0  0  0
  1  2  1  0
  2  3  1  0
  2  4  1  0
  4  5  2  0
  5  6  1  0
  5  7  1  0
  7  8  2  0
  8  9  1  0
  8 10  1  0
 10 11  1  0
 11 12  2  0
 12 13  1  0
 13 14  2  0
 14 15  1  0
 14 16  1  0
 16 17  2  0
 10  2  1  0
 17 11  1  0
M  END
>  <zinc_id>  (71) 
ZINC000000146421

>  <ortholog_name>  (71) 
DRTS_PLAFK

>  <gene_name>  (71) 
DRTS_PLAFK

>  <affinity>  (71) 
5.71

>  <chembldocid>  (71) 
15522

>  <title>  (71) 
None

>  <reference.pubmed_id>  (71) 
10893311

>  <reference.doi>  (71) 
None

>  <reference.chembl_id>  (71) 
CHEMBL1133696

>  <reference.journal>  (71) 
J. Med. Chem.

>  <reference.year>  (71) 
2000

$$$$

     RDKit          3D

 17 18  0  0  0  0  0  0  0  0999 V2000
   -4.7996    2.4772   -0.9424 C   0  0  0  0  0  0  0  0  0  0  0  0
   -4.2193    1.8725    0.1955 O   0  0  0  0  0  0  0  0  0  0  0  0
   -3.1746    0.9628    0.1226 C   0  0  0  0  0  0  0  0  0  0  0  0
   -2.6208    0.5791   -1.0822 C   0  0  0  0  0  0  0  0  0  0  0  0
   -1.5664   -0.3413   -1.1279 C   0  0  0  0  0  0  0  0  0  0  0  0
   -1.0760   -0.8702    0.0445 C   0  0  0  0  0  0  0  0  0  0  0  0
    0.0473   -1.8586    0.0819 C   0  0  0  0  0  0  0  0  0  0  0  0
    1.3627   -1.1520    0.1818 C   0  0  0  0  0  0  0  0  0  0  0  0
    2.0324   -1.1165    1.3869 C   0  0  0  0  0  0  0  0  0  0  0  0
    3.2052   -0.4799    1.4547 N   0  0  0  0  0  0  0  0  0  0  0  0
    3.7656    0.1341    0.3856 C   0  0  0  0  0  0  0  0  0  0  0  0
    5.0311    0.7940    0.5547 N   0  0  0  0  0  0  0  0  0  0  0  0
    3.1271    0.1120   -0.8050 N   0  0  0  0  0  0  0  0  0  0  0  0
    1.9368   -0.5257   -0.9038 C   0  0  0  0  0  0  0  0  0  0  0  0
    1.2718   -0.5439   -2.1614 N   0  0  0  0  0  0  0  0  0  0  0  0
   -1.6347   -0.4815    1.2411 C   0  0  0  0  0  0  0  0  0  0  0  0
   -2.6887    0.4377    1.2972 C   0  0  0  0  0  0  0  0  0  0  0  0
  1  2  1  0
  2  3  1  0
  3  4  2  0
  4  5  1  0
  5  6  2  0
  6  7  1  0
  7  8  1  0
  8  9  2  0
  9 10  1  0
 10 11  2  0
 11 12  1  0
 11 13  1  0
 13 14  2  0
 14 15  1  0
  6 16  1  0
 16 17  2  0
 17  3  1  0
 14  8  1  0
M  END
>  <zinc_id>  (72) 
ZINC000000380804

>  <ortholog_name>  (72) 
DRTS_PLAFK

>  <gene_name>  (72) 
DRTS_PLAFK

>  <affinity>  (72) 
7.63

>  <chembldocid>  (72) 
17636

>  <title>  (72) 
None

>  <reference.pubmed_id>  (72) 
14711307

>  <reference.doi>  (72) 
None

>  <reference.chembl_id>  (72) 
CHEMBL1148379

>  <reference.journal>  (72) 
J. Med. Chem.

>  <reference.year>  (72) 
2004

$$$$

     RDKit          3D

 17 18  0  0  0  0  0  0  0  0999 V2000
   -4.7996    2.4772   -0.9424 C   0  0  0  0  0  0  0  0  0  0  0  0
   -4.2193    1.8725    0.1955 O   0  0  0  0  0  0  0  0  0  0  0  0
   -3.1746    0.9628    0.1226 C   0  0  0  0  0  0  0  0  0  0  0  0
   -2.6208    0.5791   -1.0822 C   0  0  0  0  0  0  0  0  0  0  0  0
   -1.5664   -0.3413   -1.1279 C   0  0  0  0  0  0  0  0  0  0  0  0
   -1.0760   -0.8702    0.0445 C   0  0  0  0  0  0  0  0  0  0  0  0
    0.0473   -1.8586    0.0819 C   0  0  0  0  0  0  0  0  0  0  0  0
    1.3627   -1.1520    0.1818 C   0  0  0  0  0  0  0  0  0  0  0  0
    2.0324   -1.1165    1.3869 C   0  0  0  0  0  0  0  0  0  0  0  0
    3.2052   -0.4799    1.4547 N   0  0  0  0  0  0  0  0  0  0  0  0
    3.7656    0.1341    0.3856 C   0  0  0  0  0  0  0  0  0  0  0  0
    5.0311    0.7940    0.5547 N   0  0  0  0  0  0  0  0  0  0  0  0
    3.1271    0.1120   -0.8050 N   0  0  0  0  0  0  0  0  0  0  0  0
    1.9368   -0.5257   -0.9038 C   0  0  0  0  0  0  0  0  0  0  0  0
    1.2718   -0.5439   -2.1614 N   0  0  0  0  0  0  0  0  0  0  0  0
   -1.6347   -0.4815    1.2411 C   0  0  0  0  0  0  0  0  0  0  0  0
   -2.6887    0.4377    1.2972 C   0  0  0  0  0  0  0  0  0  0  0  0
  1  2  1  0
  2  3  1  0
  3  4  2  0
  4  5  1  0
  5  6  2  0
  6  7  1  0
  7  8  1  0
  8  9  2  0
  9 10  1  0
 10 11  2  0
 11 12  1  0
 11 13  1  0
 13 14  2  0
 14 15  1  0
  6 16  1  0
 16 17  2  0
 17  3  1  0
 14  8  1  0
M  END
>  <zinc_id>  (73) 
ZINC000000380804

>  <ortholog_name>  (73) 
DRTS_PLAFK

>  <gene_name>  (73) 
DRTS_PLAFK

>  <affinity>  (73) 
5.40

>  <chembldocid>  (73) 
17636

>  <title>  (73) 
None

>  <reference.pubmed_id>  (73) 
14711307

>  <reference.doi>  (73) 
None

>  <reference.chembl_id>  (73) 
CHEMBL1148379

>  <reference.journal>  (73) 
J. Med. Chem.

>  <reference.year>  (73) 
2004

$$$$

     RDKit          3D

 17 18  0  0  0  0  0  0  0  0999 V2000
   -4.7996    2.4772   -0.9424 C   0  0  0  0  0  0  0  0  0  0  0  0
   -4.2193    1.8725    0.1955 O   0  0  0  0  0  0  0  0  0  0  0  0
   -3.1746    0.9628    0.1226 C   0  0  0  0  0  0  0  0  0  0  0  0
   -2.6208    0.5791   -1.0822 C   0  0  0  0  0  0  0  0  0  0  0  0
   -1.5664   -0.3413   -1.1279 C   0  0  0  0  0  0  0  0  0  0  0  0
   -1.0760   -0.8702    0.0445 C   0  0  0  0  0  0  0  0  0  0  0  0
    0.0473   -1.8586    0.0819 C   0  0  0  0  0  0  0  0  0  0  0  0
    1.3627   -1.1520    0.1818 C   0  0  0  0  0  0  0  0  0  0  0  0
    2.0324   -1.1165    1.3869 C   0  0  0  0  0  0  0  0  0  0  0  0
    3.2052   -0.4799    1.4547 N   0  0  0  0  0  0  0  0  0  0  0  0
    3.7656    0.1341    0.3856 C   0  0  0  0  0  0  0  0  0  0  0  0
    5.0311    0.7940    0.5547 N   0  0  0  0  0  0  0  0  0  0  0  0
    3.1271    0.1120   -0.8050 N   0  0  0  0  0  0  0  0  0  0  0  0
    1.9368   -0.5257   -0.9038 C   0  0  0  0  0  0  0  0  0  0  0  0
    1.2718   -0.5439   -2.1614 N   0  0  0  0  0  0  0  0  0  0  0  0
   -1.6347   -0.4815    1.2411 C   0  0  0  0  0  0  0  0  0  0  0  0
   -2.6887    0.4377    1.2972 C   0  0  0  0  0  0  0  0  0  0  0  0
  1  2  1  0
  2  3  1  0
  3  4  2  0
  4  5  1  0
  5  6  2  0
  6  7  1  0
  7  8  1  0
  8  9  2  0
  9 10  1  0
 10 11  2  0
 11 12  1  0
 11 13  1  0
 13 14  2  0
 14 15  1  0
  6 16  1  0
 16 17  2  0
 17  3  1  0
 14  8  1  0
M  END
>  <zinc_id>  (74) 
ZINC000000380804

>  <ortholog_name>  (74) 
DRTS_PLAFK

>  <gene_name>  (74) 
DRTS_PLAFK

>  <affinity>  (74) 
6.33

>  <chembldocid>  (74) 
17636

>  <title>  (74) 
None

>  <reference.pubmed_id>  (74) 
14711307

>  <reference.doi>  (74) 
None

>  <reference.chembl_id>  (74) 
CHEMBL1148379

>  <reference.journal>  (74) 
J. Med. Chem.

>  <reference.year>  (74) 
2004

$$$$

     RDKit          3D

 18 19  0  0  0  0  0  0  0  0999 V2000
   -1.4108   -1.9743    0.6613 C   0  0  0  0  0  0  0  0  0  0  0  0
   -1.6853   -0.8628   -0.3677 C   0  0  0  0  0  0  0  0  0  0  0  0
   -1.4439   -1.4223   -1.7549 C   0  0  0  0  0  0  0  0  0  0  0  0
   -3.0614   -0.4925   -0.1855 N   0  0  0  0  0  0  0  0  0  0  0  0
   -3.4796    0.6415    0.1995 C   0  0  0  0  0  0  0  0  0  0  0  0
   -4.8860    0.8357    0.3262 N   0  0  0  0  0  0  0  0  0  0  0  0
   -2.5782    1.7019    0.5008 N   0  0  0  0  0  0  0  0  0  0  0  0
   -1.3126    1.4570    0.3641 C   0  0  0  0  0  0  0  0  0  0  0  0
   -0.3362    2.4809    0.6501 N   0  0  0  0  0  0  0  0  0  0  0  0
   -0.8007    0.2123   -0.0610 N   0  0  0  0  0  0  0  0  0  0  0  0
    0.6288    0.0309   -0.1848 C   0  0  0  0  0  0  0  0  0  0  0  0
    1.2828    0.3004   -1.3575 C   0  0  0  0  0  0  0  0  0  0  0  0
    2.6593    0.1316   -1.4954 C   0  0  0  0  0  0  0  0  0  0  0  0
    3.4134   -0.3198   -0.4348 C   0  0  0  0  0  0  0  0  0  0  0  0
    5.1577   -0.5447   -0.5748 Cl  0  0  0  0  0  0  0  0  0  0  0  0
    2.7649   -0.5935    0.7487 C   0  0  0  0  0  0  0  0  0  0  0  0
    3.6939   -1.1622    2.0956 Cl  0  0  0  0  0  0  0  0  0  0  0  0
    1.3939   -0.4202    0.8699 C   0  0  0  0  0  0  0  0  0  0  0  0
  1  2  1  0
  2  3  1  0
  2  4  1  0
  4  5  2  0
  5  6  1  0
  5  7  1  0
  7  8  2  0
  8  9  1  0
  8 10  1  0
 10 11  1  0
 11 12  2  0
 12 13  1  0
 13 14  2  0
 14 15  1  0
 14 16  1  0
 16 17  1  0
 16 18  2  0
 10  2  1  0
 18 11  1  0
M  END
>  <zinc_id>  (75) 
ZINC000001666573

>  <ortholog_name>  (75) 
DRTS_PLAFK

>  <gene_name>  (75) 
DRTS_PLAFK

>  <affinity>  (75) 
8.96

>  <chembldocid>  (75) 
15522

>  <title>  (75) 
None

>  <reference.pubmed_id>  (75) 
10893311

>  <reference.doi>  (75) 
None

>  <reference.chembl_id>  (75) 
CHEMBL1133696

>  <reference.journal>  (75) 
J. Med. Chem.

>  <reference.year>  (75) 
2000

$$$$

     RDKit          3D

 18 19  0  0  0  0  0  0  0  0999 V2000
   -1.4108   -1.9743    0.6613 C   0  0  0  0  0  0  0  0  0  0  0  0
   -1.6853   -0.8628   -0.3677 C   0  0  0  0  0  0  0  0  0  0  0  0
   -1.4439   -1.4223   -1.7549 C   0  0  0  0  0  0  0  0  0  0  0  0
   -3.0614   -0.4925   -0.1855 N   0  0  0  0  0  0  0  0  0  0  0  0
   -3.4796    0.6415    0.1995 C   0  0  0  0  0  0  0  0  0  0  0  0
   -4.8860    0.8357    0.3262 N   0  0  0  0  0  0  0  0  0  0  0  0
   -2.5782    1.7019    0.5008 N   0  0  0  0  0  0  0  0  0  0  0  0
   -1.3126    1.4570    0.3641 C   0  0  0  0  0  0  0  0  0  0  0  0
   -0.3362    2.4809    0.6501 N   0  0  0  0  0  0  0  0  0  0  0  0
   -0.8007    0.2123   -0.0610 N   0  0  0  0  0  0  0  0  0  0  0  0
    0.6288    0.0309   -0.1848 C   0  0  0  0  0  0  0  0  0  0  0  0
    1.2828    0.3004   -1.3575 C   0  0  0  0  0  0  0  0  0  0  0  0
    2.6593    0.1316   -1.4954 C   0  0  0  0  0  0  0  0  0  0  0  0
    3.4134   -0.3198   -0.4348 C   0  0  0  0  0  0  0  0  0  0  0  0
    5.1577   -0.5447   -0.5748 Cl  0  0  0  0  0  0  0  0  0  0  0  0
    2.7649   -0.5935    0.7487 C   0  0  0  0  0  0  0  0  0  0  0  0
    3.6939   -1.1622    2.0956 Cl  0  0  0  0  0  0  0  0  0  0  0  0
    1.3939   -0.4202    0.8699 C   0  0  0  0  0  0  0  0  0  0  0  0
  1  2  1  0
  2  3  1  0
  2  4  1  0
  4  5  2  0
  5  6  1  0
  5  7  1  0
  7  8  2  0
  8  9  1  0
  8 10  1  0
 10 11  1  0
 11 12  2  0
 12 13  1  0
 13 14  2  0
 14 15  1  0
 14 16  1  0
 16 17  1  0
 16 18  2  0
 10  2  1  0
 18 11  1  0
M  END
>  <zinc_id>  (76) 
ZINC000001666573

>  <ortholog_name>  (76) 
DRTS_PLAFK

>  <gene_name>  (76) 
DRTS_PLAFK

>  <affinity>  (76) 
8.96

>  <chembldocid>  (76) 
21047

>  <title>  (76) 
None

>  <reference.pubmed_id>  (76) 
15293997

>  <reference.doi>  (76) 
None

>  <reference.chembl_id>  (76) 
CHEMBL1138679

>  <reference.journal>  (76) 
J. Med. Chem.

>  <reference.year>  (76) 
2004

$$$$

     RDKit          3D

 18 19  0  0  0  0  0  0  0  0999 V2000
   -1.4108   -1.9743    0.6613 C   0  0  0  0  0  0  0  0  0  0  0  0
   -1.6853   -0.8628   -0.3677 C   0  0  0  0  0  0  0  0  0  0  0  0
   -1.4439   -1.4223   -1.7549 C   0  0  0  0  0  0  0  0  0  0  0  0
   -3.0614   -0.4925   -0.1855 N   0  0  0  0  0  0  0  0  0  0  0  0
   -3.4796    0.6415    0.1995 C   0  0  0  0  0  0  0  0  0  0  0  0
   -4.8860    0.8357    0.3262 N   0  0  0  0  0  0  0  0  0  0  0  0
   -2.5782    1.7019    0.5008 N   0  0  0  0  0  0  0  0  0  0  0  0
   -1.3126    1.4570    0.3641 C   0  0  0  0  0  0  0  0  0  0  0  0
   -0.3362    2.4809    0.6501 N   0  0  0  0  0  0  0  0  0  0  0  0
   -0.8007    0.2123   -0.0610 N   0  0  0  0  0  0  0  0  0  0  0  0
    0.6288    0.0309   -0.1848 C   0  0  0  0  0  0  0  0  0  0  0  0
    1.2828    0.3004   -1.3575 C   0  0  0  0  0  0  0  0  0  0  0  0
    2.6593    0.1316   -1.4954 C   0  0  0  0  0  0  0  0  0  0  0  0
    3.4134   -0.3198   -0.4348 C   0  0  0  0  0  0  0  0  0  0  0  0
    5.1577   -0.5447   -0.5748 Cl  0  0  0  0  0  0  0  0  0  0  0  0
    2.7649   -0.5935    0.7487 C   0  0  0  0  0  0  0  0  0  0  0  0
    3.6939   -1.1622    2.0956 Cl  0  0  0  0  0  0  0  0  0  0  0  0
    1.3939   -0.4202    0.8699 C   0  0  0  0  0  0  0  0  0  0  0  0
  1  2  1  0
  2  3  1  0
  2  4  1  0
  4  5  2  0
  5  6  1  0
  5  7  1  0
  7  8  2  0
  8  9  1  0
  8 10  1  0
 10 11  1  0
 11 12  2  0
 12 13  1  0
 13 14  2  0
 14 15  1  0
 14 16  1  0
 16 17  1  0
 16 18  2  0
 10  2  1  0
 18 11  1  0
M  END
>  <zinc_id>  (77) 
ZINC000001666573

>  <ortholog_name>  (77) 
DRTS_PLAFK

>  <gene_name>  (77) 
DRTS_PLAFK

>  <affinity>  (77) 
6.88

>  <chembldocid>  (77) 
15522

>  <title>  (77) 
None

>  <reference.pubmed_id>  (77) 
10893311

>  <reference.doi>  (77) 
None

>  <reference.chembl_id>  (77) 
CHEMBL1133696

>  <reference.journal>  (77) 
J. Med. Chem.

>  <reference.year>  (77) 
2000

$$$$

     RDKit          3D

 17 18  0  0  0  0  0  0  0  0999 V2000
   -0.9102   -0.9614   -2.1758 C   0  0  0  0  0  0  0  0  0  0  0  0
   -1.1540    0.1803   -1.2192 C   0  0  0  0  0  0  0  0  0  0  0  0
   -0.5739    1.4927   -1.7649 C   0  0  0  0  0  0  0  0  0  0  0  0
   -2.5582    0.3819   -1.0795 N   0  0  0  0  0  0  0  0  0  0  0  0
   -3.2286    0.3354    0.0142 C   0  0  0  0  0  0  0  0  0  0  0  0
   -4.6530    0.5627   -0.0083 N   0  0  0  0  0  0  0  0  0  0  0  0
   -2.5440    0.0608    1.2140 N   0  0  0  0  0  0  0  0  0  0  0  0
   -1.2706   -0.1364    1.1915 C   0  0  0  0  0  0  0  0  0  0  0  0
   -0.6317   -0.4093    2.4310 N   0  0  0  0  0  0  0  0  0  0  0  0
   -0.4908   -0.0979    0.0319 N   0  0  0  0  0  0  0  0  0  0  0  0
    0.8959   -0.3229    0.0826 C   0  0  0  0  0  0  0  0  0  0  0  0
    1.4256   -1.5900   -0.0515 C   0  0  0  0  0  0  0  0  0  0  0  0
    2.7851   -1.8243   -0.0037 C   0  0  0  0  0  0  0  0  0  0  0  0
    3.6564   -0.7506    0.1860 C   0  0  0  0  0  0  0  0  0  0  0  0
    3.1601    0.5230    0.3229 C   0  0  0  0  0  0  0  0  0  0  0  0
    4.2982    1.8300    0.5583 Cl  0  0  0  0  0  0  0  0  0  0  0  0
    1.7939    0.7259    0.2706 C   0  0  0  0  0  0  0  0  0  0  0  0
  1  2  1  0
  2  3  1  0
  2  4  1  0
  4  5  2  0
  5  6  1  0
  5  7  1  0
  7  8  2  0
  8  9  1  0
  8 10  1  0
 10 11  1  0
 11 12  2  0
 12 13  1  0
 13 14  2  0
 14 15  1  0
 15 16  1  0
 15 17  2  0
 10  2  1  0
 17 11  1  0
M  END
>  <zinc_id>  (78) 
ZINC000001666576

>  <ortholog_name>  (78) 
DRTS_PLAFK

>  <gene_name>  (78) 
DRTS_PLAFK

>  <affinity>  (78) 
5.89

>  <chembldocid>  (78) 
17662

>  <title>  (78) 
None

>  <reference.pubmed_id>  (78) 
14736247

>  <reference.doi>  (78) 
None

>  <reference.chembl_id>  (78) 
CHEMBL1138835

>  <reference.journal>  (78) 
J. Med. Chem.

>  <reference.year>  (78) 
2004

$$$$

     RDKit          3D

 17 18  0  0  0  0  0  0  0  0999 V2000
   -0.9102   -0.9614   -2.1758 C   0  0  0  0  0  0  0  0  0  0  0  0
   -1.1540    0.1803   -1.2192 C   0  0  0  0  0  0  0  0  0  0  0  0
   -0.5739    1.4927   -1.7649 C   0  0  0  0  0  0  0  0  0  0  0  0
   -2.5582    0.3819   -1.0795 N   0  0  0  0  0  0  0  0  0  0  0  0
   -3.2286    0.3354    0.0142 C   0  0  0  0  0  0  0  0  0  0  0  0
   -4.6530    0.5627   -0.0083 N   0  0  0  0  0  0  0  0  0  0  0  0
   -2.5440    0.0608    1.2140 N   0  0  0  0  0  0  0  0  0  0  0  0
   -1.2706   -0.1364    1.1915 C   0  0  0  0  0  0  0  0  0  0  0  0
   -0.6317   -0.4093    2.4310 N   0  0  0  0  0  0  0  0  0  0  0  0
   -0.4908   -0.0979    0.0319 N   0  0  0  0  0  0  0  0  0  0  0  0
    0.8959   -0.3229    0.0826 C   0  0  0  0  0  0  0  0  0  0  0  0
    1.4256   -1.5900   -0.0515 C   0  0  0  0  0  0  0  0  0  0  0  0
    2.7851   -1.8243   -0.0037 C   0  0  0  0  0  0  0  0  0  0  0  0
    3.6564   -0.7506    0.1860 C   0  0  0  0  0  0  0  0  0  0  0  0
    3.1601    0.5230    0.3229 C   0  0  0  0  0  0  0  0  0  0  0  0
    4.2982    1.8300    0.5583 Cl  0  0  0  0  0  0  0  0  0  0  0  0
    1.7939    0.7259    0.2706 C   0  0  0  0  0  0  0  0  0  0  0  0
  1  2  1  0
  2  3  1  0
  2  4  1  0
  4  5  2  0
  5  6  1  0
  5  7  1  0
  7  8  2  0
  8  9  1  0
  8 10  1  0
 10 11  1  0
 11 12  2  0
 12 13  1  0
 13 14  2  0
 14 15  1  0
 15 16  1  0
 15 17  2  0
 10  2  1  0
 17 11  1  0
M  END
>  <zinc_id>  (79) 
ZINC000001666576

>  <ortholog_name>  (79) 
DRTS_PLAFK

>  <gene_name>  (79) 
DRTS_PLAFK

>  <affinity>  (79) 
7.85

>  <chembldocid>  (79) 
17662

>  <title>  (79) 
None

>  <reference.pubmed_id>  (79) 
14736247

>  <reference.doi>  (79) 
None

>  <reference.chembl_id>  (79) 
CHEMBL1138835

>  <reference.journal>  (79) 
J. Med. Chem.

>  <reference.year>  (79) 
2004

$$$$

     RDKit          3D

 17 18  0  0  0  0  0  0  0  0999 V2000
   -0.9102   -0.9614   -2.1758 C   0  0  0  0  0  0  0  0  0  0  0  0
   -1.1540    0.1803   -1.2192 C   0  0  0  0  0  0  0  0  0  0  0  0
   -0.5739    1.4927   -1.7649 C   0  0  0  0  0  0  0  0  0  0  0  0
   -2.5582    0.3819   -1.0795 N   0  0  0  0  0  0  0  0  0  0  0  0
   -3.2286    0.3354    0.0142 C   0  0  0  0  0  0  0  0  0  0  0  0
   -4.6530    0.5627   -0.0083 N   0  0  0  0  0  0  0  0  0  0  0  0
   -2.5440    0.0608    1.2140 N   0  0  0  0  0  0  0  0  0  0  0  0
   -1.2706   -0.1364    1.1915 C   0  0  0  0  0  0  0  0  0  0  0  0
   -0.6317   -0.4093    2.4310 N   0  0  0  0  0  0  0  0  0  0  0  0
   -0.4908   -0.0979    0.0319 N   0  0  0  0  0  0  0  0  0  0  0  0
    0.8959   -0.3229    0.0826 C   0  0  0  0  0  0  0  0  0  0  0  0
    1.4256   -1.5900   -0.0515 C   0  0  0  0  0  0  0  0  0  0  0  0
    2.7851   -1.8243   -0.0037 C   0  0  0  0  0  0  0  0  0  0  0  0
    3.6564   -0.7506    0.1860 C   0  0  0  0  0  0  0  0  0  0  0  0
    3.1601    0.5230    0.3229 C   0  0  0  0  0  0  0  0  0  0  0  0
    4.2982    1.8300    0.5583 Cl  0  0  0  0  0  0  0  0  0  0  0  0
    1.7939    0.7259    0.2706 C   0  0  0  0  0  0  0  0  0  0  0  0
  1  2  1  0
  2  3  1  0
  2  4  1  0
  4  5  2  0
  5  6  1  0
  5  7  1  0
  7  8  2  0
  8  9  1  0
  8 10  1  0
 10 11  1  0
 11 12  2  0
 12 13  1  0
 13 14  2  0
 14 15  1  0
 15 16  1  0
 15 17  2  0
 10  2  1  0
 17 11  1  0
M  END
>  <zinc_id>  (80) 
ZINC000001666576

>  <ortholog_name>  (80) 
DRTS_PLAFK

>  <gene_name>  (80) 
DRTS_PLAFK

>  <affinity>  (80) 
8.66

>  <chembldocid>  (80) 
17662

>  <title>  (80) 
None

>  <reference.pubmed_id>  (80) 
14736247

>  <reference.doi>  (80) 
None

>  <reference.chembl_id>  (80) 
CHEMBL1138835

>  <reference.journal>  (80) 
J. Med. Chem.

>  <reference.year>  (80) 
2004

$$$$

     RDKit          3D

 17 18  0  0  0  0  0  0  0  0999 V2000
   -0.9102   -0.9614   -2.1758 C   0  0  0  0  0  0  0  0  0  0  0  0
   -1.1540    0.1803   -1.2192 C   0  0  0  0  0  0  0  0  0  0  0  0
   -0.5739    1.4927   -1.7649 C   0  0  0  0  0  0  0  0  0  0  0  0
   -2.5582    0.3819   -1.0795 N   0  0  0  0  0  0  0  0  0  0  0  0
   -3.2286    0.3354    0.0142 C   0  0  0  0  0  0  0  0  0  0  0  0
   -4.6530    0.5627   -0.0083 N   0  0  0  0  0  0  0  0  0  0  0  0
   -2.5440    0.0608    1.2140 N   0  0  0  0  0  0  0  0  0  0  0  0
   -1.2706   -0.1364    1.1915 C   0  0  0  0  0  0  0  0  0  0  0  0
   -0.6317   -0.4093    2.4310 N   0  0  0  0  0  0  0  0  0  0  0  0
   -0.4908   -0.0979    0.0319 N   0  0  0  0  0  0  0  0  0  0  0  0
    0.8959   -0.3229    0.0826 C   0  0  0  0  0  0  0  0  0  0  0  0
    1.4256   -1.5900   -0.0515 C   0  0  0  0  0  0  0  0  0  0  0  0
    2.7851   -1.8243   -0.0037 C   0  0  0  0  0  0  0  0  0  0  0  0
    3.6564   -0.7506    0.1860 C   0  0  0  0  0  0  0  0  0  0  0  0
    3.1601    0.5230    0.3229 C   0  0  0  0  0  0  0  0  0  0  0  0
    4.2982    1.8300    0.5583 Cl  0  0  0  0  0  0  0  0  0  0  0  0
    1.7939    0.7259    0.2706 C   0  0  0  0  0  0  0  0  0  0  0  0
  1  2  1  0
  2  3  1  0
  2  4  1  0
  4  5  2  0
  5  6  1  0
  5  7  1  0
  7  8  2  0
  8  9  1  0
  8 10  1  0
 10 11  1  0
 11 12  2  0
 12 13  1  0
 13 14  2  0
 14 15  1  0
 15 16  1  0
 15 17  2  0
 10  2  1  0
 17 11  1  0
M  END
>  <zinc_id>  (81) 
ZINC000001666576

>  <ortholog_name>  (81) 
DRTS_PLAFK

>  <gene_name>  (81) 
DRTS_PLAFK

>  <affinity>  (81) 
6.66

>  <chembldocid>  (81) 
17662

>  <title>  (81) 
None

>  <reference.pubmed_id>  (81) 
14736247

>  <reference.doi>  (81) 
None

>  <reference.chembl_id>  (81) 
CHEMBL1138835

>  <reference.journal>  (81) 
J. Med. Chem.

>  <reference.year>  (81) 
2004

$$$$

     RDKit          3D

 17 18  0  0  0  0  0  0  0  0999 V2000
   -0.9102   -0.9614   -2.1758 C   0  0  0  0  0  0  0  0  0  0  0  0
   -1.1540    0.1803   -1.2192 C   0  0  0  0  0  0  0  0  0  0  0  0
   -0.5739    1.4927   -1.7649 C   0  0  0  0  0  0  0  0  0  0  0  0
   -2.5582    0.3819   -1.0795 N   0  0  0  0  0  0  0  0  0  0  0  0
   -3.2286    0.3354    0.0142 C   0  0  0  0  0  0  0  0  0  0  0  0
   -4.6530    0.5627   -0.0083 N   0  0  0  0  0  0  0  0  0  0  0  0
   -2.5440    0.0608    1.2140 N   0  0  0  0  0  0  0  0  0  0  0  0
   -1.2706   -0.1364    1.1915 C   0  0  0  0  0  0  0  0  0  0  0  0
   -0.6317   -0.4093    2.4310 N   0  0  0  0  0  0  0  0  0  0  0  0
   -0.4908   -0.0979    0.0319 N   0  0  0  0  0  0  0  0  0  0  0  0
    0.8959   -0.3229    0.0826 C   0  0  0  0  0  0  0  0  0  0  0  0
    1.4256   -1.5900   -0.0515 C   0  0  0  0  0  0  0  0  0  0  0  0
    2.7851   -1.8243   -0.0037 C   0  0  0  0  0  0  0  0  0  0  0  0
    3.6564   -0.7506    0.1860 C   0  0  0  0  0  0  0  0  0  0  0  0
    3.1601    0.5230    0.3229 C   0  0  0  0  0  0  0  0  0  0  0  0
    4.2982    1.8300    0.5583 Cl  0  0  0  0  0  0  0  0  0  0  0  0
    1.7939    0.7259    0.2706 C   0  0  0  0  0  0  0  0  0  0  0  0
  1  2  1  0
  2  3  1  0
  2  4  1  0
  4  5  2  0
  5  6  1  0
  5  7  1  0
  7  8  2  0
  8  9  1  0
  8 10  1  0
 10 11  1  0
 11 12  2  0
 12 13  1  0
 13 14  2  0
 14 15  1  0
 15 16  1  0
 15 17  2  0
 10  2  1  0
 17 11  1  0
M  END
>  <zinc_id>  (82) 
ZINC000001666576

>  <ortholog_name>  (82) 
DRTS_PLAFK

>  <gene_name>  (82) 
DRTS_PLAFK

>  <affinity>  (82) 
7.60

>  <chembldocid>  (82) 
17662

>  <title>  (82) 
None

>  <reference.pubmed_id>  (82) 
14736247

>  <reference.doi>  (82) 
None

>  <reference.chembl_id>  (82) 
CHEMBL1138835

>  <reference.journal>  (82) 
J. Med. Chem.

>  <reference.year>  (82) 
2004

$$$$

     RDKit          3D

 17 18  0  0  0  0  0  0  0  0999 V2000
   -0.9102   -0.9614   -2.1758 C   0  0  0  0  0  0  0  0  0  0  0  0
   -1.1540    0.1803   -1.2192 C   0  0  0  0  0  0  0  0  0  0  0  0
   -0.5739    1.4927   -1.7649 C   0  0  0  0  0  0  0  0  0  0  0  0
   -2.5582    0.3819   -1.0795 N   0  0  0  0  0  0  0  0  0  0  0  0
   -3.2286    0.3354    0.0142 C   0  0  0  0  0  0  0  0  0  0  0  0
   -4.6530    0.5627   -0.0083 N   0  0  0  0  0  0  0  0  0  0  0  0
   -2.5440    0.0608    1.2140 N   0  0  0  0  0  0  0  0  0  0  0  0
   -1.2706   -0.1364    1.1915 C   0  0  0  0  0  0  0  0  0  0  0  0
   -0.6317   -0.4093    2.4310 N   0  0  0  0  0  0  0  0  0  0  0  0
   -0.4908   -0.0979    0.0319 N   0  0  0  0  0  0  0  0  0  0  0  0
    0.8959   -0.3229    0.0826 C   0  0  0  0  0  0  0  0  0  0  0  0
    1.4256   -1.5900   -0.0515 C   0  0  0  0  0  0  0  0  0  0  0  0
    2.7851   -1.8243   -0.0037 C   0  0  0  0  0  0  0  0  0  0  0  0
    3.6564   -0.7506    0.1860 C   0  0  0  0  0  0  0  0  0  0  0  0
    3.1601    0.5230    0.3229 C   0  0  0  0  0  0  0  0  0  0  0  0
    4.2982    1.8300    0.5583 Cl  0  0  0  0  0  0  0  0  0  0  0  0
    1.7939    0.7259    0.2706 C   0  0  0  0  0  0  0  0  0  0  0  0
  1  2  1  0
  2  3  1  0
  2  4  1  0
  4  5  2  0
  5  6  1  0
  5  7  1  0
  7  8  2  0
  8  9  1  0
  8 10  1  0
 10 11  1  0
 11 12  2  0
 12 13  1  0
 13 14  2  0
 14 15  1  0
 15 16  1  0
 15 17  2  0
 10  2  1  0
 17 11  1  0
M  END
>  <zinc_id>  (83) 
ZINC000001666576

>  <ortholog_name>  (83) 
DRTS_PLAFK

>  <gene_name>  (83) 
DRTS_PLAFK

>  <affinity>  (83) 
8.52

>  <chembldocid>  (83) 
17662

>  <title>  (83) 
None

>  <reference.pubmed_id>  (83) 
14736247

>  <reference.doi>  (83) 
None

>  <reference.chembl_id>  (83) 
CHEMBL1138835

>  <reference.journal>  (83) 
J. Med. Chem.

>  <reference.year>  (83) 
2004

$$$$

     RDKit          3D

 17 18  0  0  0  0  0  0  0  0999 V2000
   -0.9102   -0.9614   -2.1758 C   0  0  0  0  0  0  0  0  0  0  0  0
   -1.1540    0.1803   -1.2192 C   0  0  0  0  0  0  0  0  0  0  0  0
   -0.5739    1.4927   -1.7649 C   0  0  0  0  0  0  0  0  0  0  0  0
   -2.5582    0.3819   -1.0795 N   0  0  0  0  0  0  0  0  0  0  0  0
   -3.2286    0.3354    0.0142 C   0  0  0  0  0  0  0  0  0  0  0  0
   -4.6530    0.5627   -0.0083 N   0  0  0  0  0  0  0  0  0  0  0  0
   -2.5440    0.0608    1.2140 N   0  0  0  0  0  0  0  0  0  0  0  0
   -1.2706   -0.1364    1.1915 C   0  0  0  0  0  0  0  0  0  0  0  0
   -0.6317   -0.4093    2.4310 N   0  0  0  0  0  0  0  0  0  0  0  0
   -0.4908   -0.0979    0.0319 N   0  0  0  0  0  0  0  0  0  0  0  0
    0.8959   -0.3229    0.0826 C   0  0  0  0  0  0  0  0  0  0  0  0
    1.4256   -1.5900   -0.0515 C   0  0  0  0  0  0  0  0  0  0  0  0
    2.7851   -1.8243   -0.0037 C   0  0  0  0  0  0  0  0  0  0  0  0
    3.6564   -0.7506    0.1860 C   0  0  0  0  0  0  0  0  0  0  0  0
    3.1601    0.5230    0.3229 C   0  0  0  0  0  0  0  0  0  0  0  0
    4.2982    1.8300    0.5583 Cl  0  0  0  0  0  0  0  0  0  0  0  0
    1.7939    0.7259    0.2706 C   0  0  0  0  0  0  0  0  0  0  0  0
  1  2  1  0
  2  3  1  0
  2  4  1  0
  4  5  2  0
  5  6  1  0
  5  7  1  0
  7  8  2  0
  8  9  1  0
  8 10  1  0
 10 11  1  0
 11 12  2  0
 12 13  1  0
 13 14  2  0
 14 15  1  0
 15 16  1  0
 15 17  2  0
 10  2  1  0
 17 11  1  0
M  END
>  <zinc_id>  (84) 
ZINC000001666576

>  <ortholog_name>  (84) 
DRTS_PLAFK

>  <gene_name>  (84) 
DRTS_PLAFK

>  <affinity>  (84) 
8.43

>  <chembldocid>  (84) 
15522

>  <title>  (84) 
None

>  <reference.pubmed_id>  (84) 
10893311

>  <reference.doi>  (84) 
None

>  <reference.chembl_id>  (84) 
CHEMBL1133696

>  <reference.journal>  (84) 
J. Med. Chem.

>  <reference.year>  (84) 
2000

$$$$

     RDKit          3D

 17 18  0  0  0  0  0  0  0  0999 V2000
   -0.9102   -0.9614   -2.1758 C   0  0  0  0  0  0  0  0  0  0  0  0
   -1.1540    0.1803   -1.2192 C   0  0  0  0  0  0  0  0  0  0  0  0
   -0.5739    1.4927   -1.7649 C   0  0  0  0  0  0  0  0  0  0  0  0
   -2.5582    0.3819   -1.0795 N   0  0  0  0  0  0  0  0  0  0  0  0
   -3.2286    0.3354    0.0142 C   0  0  0  0  0  0  0  0  0  0  0  0
   -4.6530    0.5627   -0.0083 N   0  0  0  0  0  0  0  0  0  0  0  0
   -2.5440    0.0608    1.2140 N   0  0  0  0  0  0  0  0  0  0  0  0
   -1.2706   -0.1364    1.1915 C   0  0  0  0  0  0  0  0  0  0  0  0
   -0.6317   -0.4093    2.4310 N   0  0  0  0  0  0  0  0  0  0  0  0
   -0.4908   -0.0979    0.0319 N   0  0  0  0  0  0  0  0  0  0  0  0
    0.8959   -0.3229    0.0826 C   0  0  0  0  0  0  0  0  0  0  0  0
    1.4256   -1.5900   -0.0515 C   0  0  0  0  0  0  0  0  0  0  0  0
    2.7851   -1.8243   -0.0037 C   0  0  0  0  0  0  0  0  0  0  0  0
    3.6564   -0.7506    0.1860 C   0  0  0  0  0  0  0  0  0  0  0  0
    3.1601    0.5230    0.3229 C   0  0  0  0  0  0  0  0  0  0  0  0
    4.2982    1.8300    0.5583 Cl  0  0  0  0  0  0  0  0  0  0  0  0
    1.7939    0.7259    0.2706 C   0  0  0  0  0  0  0  0  0  0  0  0
  1  2  1  0
  2  3  1  0
  2  4  1  0
  4  5  2  0
  5  6  1  0
  5  7  1  0
  7  8  2  0
  8  9  1  0
  8 10  1  0
 10 11  1  0
 11 12  2  0
 12 13  1  0
 13 14  2  0
 14 15  1  0
 15 16  1  0
 15 17  2  0
 10  2  1  0
 17 11  1  0
M  END
>  <zinc_id>  (85) 
ZINC000001666576

>  <ortholog_name>  (85) 
DRTS_PLAFK

>  <gene_name>  (85) 
DRTS_PLAFK

>  <affinity>  (85) 
6.51

>  <chembldocid>  (85) 
17662

>  <title>  (85) 
None

>  <reference.pubmed_id>  (85) 
14736247

>  <reference.doi>  (85) 
None

>  <reference.chembl_id>  (85) 
CHEMBL1138835

>  <reference.journal>  (85) 
J. Med. Chem.

>  <reference.year>  (85) 
2004

$$$$

     RDKit          3D

 17 18  0  0  0  0  0  0  0  0999 V2000
   -0.9102   -0.9614   -2.1758 C   0  0  0  0  0  0  0  0  0  0  0  0
   -1.1540    0.1803   -1.2192 C   0  0  0  0  0  0  0  0  0  0  0  0
   -0.5739    1.4927   -1.7649 C   0  0  0  0  0  0  0  0  0  0  0  0
   -2.5582    0.3819   -1.0795 N   0  0  0  0  0  0  0  0  0  0  0  0
   -3.2286    0.3354    0.0142 C   0  0  0  0  0  0  0  0  0  0  0  0
   -4.6530    0.5627   -0.0083 N   0  0  0  0  0  0  0  0  0  0  0  0
   -2.5440    0.0608    1.2140 N   0  0  0  0  0  0  0  0  0  0  0  0
   -1.2706   -0.1364    1.1915 C   0  0  0  0  0  0  0  0  0  0  0  0
   -0.6317   -0.4093    2.4310 N   0  0  0  0  0  0  0  0  0  0  0  0
   -0.4908   -0.0979    0.0319 N   0  0  0  0  0  0  0  0  0  0  0  0
    0.8959   -0.3229    0.0826 C   0  0  0  0  0  0  0  0  0  0  0  0
    1.4256   -1.5900   -0.0515 C   0  0  0  0  0  0  0  0  0  0  0  0
    2.7851   -1.8243   -0.0037 C   0  0  0  0  0  0  0  0  0  0  0  0
    3.6564   -0.7506    0.1860 C   0  0  0  0  0  0  0  0  0  0  0  0
    3.1601    0.5230    0.3229 C   0  0  0  0  0  0  0  0  0  0  0  0
    4.2982    1.8300    0.5583 Cl  0  0  0  0  0  0  0  0  0  0  0  0
    1.7939    0.7259    0.2706 C   0  0  0  0  0  0  0  0  0  0  0  0
  1  2  1  0
  2  3  1  0
  2  4  1  0
  4  5  2  0
  5  6  1  0
  5  7  1  0
  7  8  2  0
  8  9  1  0
  8 10  1  0
 10 11  1  0
 11 12  2  0
 12 13  1  0
 13 14  2  0
 14 15  1  0
 15 16  1  0
 15 17  2  0
 10  2  1  0
 17 11  1  0
M  END
>  <zinc_id>  (86) 
ZINC000001666576

>  <ortholog_name>  (86) 
DRTS_PLAFK

>  <gene_name>  (86) 
DRTS_PLAFK

>  <affinity>  (86) 
6.48

>  <chembldocid>  (86) 
17662

>  <title>  (86) 
None

>  <reference.pubmed_id>  (86) 
14736247

>  <reference.doi>  (86) 
None

>  <reference.chembl_id>  (86) 
CHEMBL1138835

>  <reference.journal>  (86) 
J. Med. Chem.

>  <reference.year>  (86) 
2004

$$$$

     RDKit          3D

 17 18  0  0  0  0  0  0  0  0999 V2000
   -0.9102   -0.9614   -2.1758 C   0  0  0  0  0  0  0  0  0  0  0  0
   -1.1540    0.1803   -1.2192 C   0  0  0  0  0  0  0  0  0  0  0  0
   -0.5739    1.4927   -1.7649 C   0  0  0  0  0  0  0  0  0  0  0  0
   -2.5582    0.3819   -1.0795 N   0  0  0  0  0  0  0  0  0  0  0  0
   -3.2286    0.3354    0.0142 C   0  0  0  0  0  0  0  0  0  0  0  0
   -4.6530    0.5627   -0.0083 N   0  0  0  0  0  0  0  0  0  0  0  0
   -2.5440    0.0608    1.2140 N   0  0  0  0  0  0  0  0  0  0  0  0
   -1.2706   -0.1364    1.1915 C   0  0  0  0  0  0  0  0  0  0  0  0
   -0.6317   -0.4093    2.4310 N   0  0  0  0  0  0  0  0  0  0  0  0
   -0.4908   -0.0979    0.0319 N   0  0  0  0  0  0  0  0  0  0  0  0
    0.8959   -0.3229    0.0826 C   0  0  0  0  0  0  0  0  0  0  0  0
    1.4256   -1.5900   -0.0515 C   0  0  0  0  0  0  0  0  0  0  0  0
    2.7851   -1.8243   -0.0037 C   0  0  0  0  0  0  0  0  0  0  0  0
    3.6564   -0.7506    0.1860 C   0  0  0  0  0  0  0  0  0  0  0  0
    3.1601    0.5230    0.3229 C   0  0  0  0  0  0  0  0  0  0  0  0
    4.2982    1.8300    0.5583 Cl  0  0  0  0  0  0  0  0  0  0  0  0
    1.7939    0.7259    0.2706 C   0  0  0  0  0  0  0  0  0  0  0  0
  1  2  1  0
  2  3  1  0
  2  4  1  0
  4  5  2  0
  5  6  1  0
  5  7  1  0
  7  8  2  0
  8  9  1  0
  8 10  1  0
 10 11  1  0
 11 12  2  0
 12 13  1  0
 13 14  2  0
 14 15  1  0
 15 16  1  0
 15 17  2  0
 10  2  1  0
 17 11  1  0
M  END
>  <zinc_id>  (87) 
ZINC000001666576

>  <ortholog_name>  (87) 
DRTS_PLAFK

>  <gene_name>  (87) 
DRTS_PLAFK

>  <affinity>  (87) 
6.47

>  <chembldocid>  (87) 
15522

>  <title>  (87) 
None

>  <reference.pubmed_id>  (87) 
10893311

>  <reference.doi>  (87) 
None

>  <reference.chembl_id>  (87) 
CHEMBL1133696

>  <reference.journal>  (87) 
J. Med. Chem.

>  <reference.year>  (87) 
2000

$$$$

     RDKit          3D

 17 18  0  0  0  0  0  0  0  0999 V2000
   -0.9102   -0.9614   -2.1758 C   0  0  0  0  0  0  0  0  0  0  0  0
   -1.1540    0.1803   -1.2192 C   0  0  0  0  0  0  0  0  0  0  0  0
   -0.5739    1.4927   -1.7649 C   0  0  0  0  0  0  0  0  0  0  0  0
   -2.5582    0.3819   -1.0795 N   0  0  0  0  0  0  0  0  0  0  0  0
   -3.2286    0.3354    0.0142 C   0  0  0  0  0  0  0  0  0  0  0  0
   -4.6530    0.5627   -0.0083 N   0  0  0  0  0  0  0  0  0  0  0  0
   -2.5440    0.0608    1.2140 N   0  0  0  0  0  0  0  0  0  0  0  0
   -1.2706   -0.1364    1.1915 C   0  0  0  0  0  0  0  0  0  0  0  0
   -0.6317   -0.4093    2.4310 N   0  0  0  0  0  0  0  0  0  0  0  0
   -0.4908   -0.0979    0.0319 N   0  0  0  0  0  0  0  0  0  0  0  0
    0.8959   -0.3229    0.0826 C   0  0  0  0  0  0  0  0  0  0  0  0
    1.4256   -1.5900   -0.0515 C   0  0  0  0  0  0  0  0  0  0  0  0
    2.7851   -1.8243   -0.0037 C   0  0  0  0  0  0  0  0  0  0  0  0
    3.6564   -0.7506    0.1860 C   0  0  0  0  0  0  0  0  0  0  0  0
    3.1601    0.5230    0.3229 C   0  0  0  0  0  0  0  0  0  0  0  0
    4.2982    1.8300    0.5583 Cl  0  0  0  0  0  0  0  0  0  0  0  0
    1.7939    0.7259    0.2706 C   0  0  0  0  0  0  0  0  0  0  0  0
  1  2  1  0
  2  3  1  0
  2  4  1  0
  4  5  2  0
  5  6  1  0
  5  7  1  0
  7  8  2  0
  8  9  1  0
  8 10  1  0
 10 11  1  0
 11 12  2  0
 12 13  1  0
 13 14  2  0
 14 15  1  0
 15 16  1  0
 15 17  2  0
 10  2  1  0
 17 11  1  0
M  END
>  <zinc_id>  (88) 
ZINC000001666576

>  <ortholog_name>  (88) 
DRTS_PLAFK

>  <gene_name>  (88) 
DRTS_PLAFK

>  <affinity>  (88) 
7.30

>  <chembldocid>  (88) 
17662

>  <title>  (88) 
None

>  <reference.pubmed_id>  (88) 
14736247

>  <reference.doi>  (88) 
None

>  <reference.chembl_id>  (88) 
CHEMBL1138835

>  <reference.journal>  (88) 
J. Med. Chem.

>  <reference.year>  (88) 
2004

$$$$

     RDKit          3D

 17 18  0  0  0  0  0  0  0  0999 V2000
   -0.9102   -0.9614   -2.1758 C   0  0  0  0  0  0  0  0  0  0  0  0
   -1.1540    0.1803   -1.2192 C   0  0  0  0  0  0  0  0  0  0  0  0
   -0.5739    1.4927   -1.7649 C   0  0  0  0  0  0  0  0  0  0  0  0
   -2.5582    0.3819   -1.0795 N   0  0  0  0  0  0  0  0  0  0  0  0
   -3.2286    0.3354    0.0142 C   0  0  0  0  0  0  0  0  0  0  0  0
   -4.6530    0.5627   -0.0083 N   0  0  0  0  0  0  0  0  0  0  0  0
   -2.5440    0.0608    1.2140 N   0  0  0  0  0  0  0  0  0  0  0  0
   -1.2706   -0.1364    1.1915 C   0  0  0  0  0  0  0  0  0  0  0  0
   -0.6317   -0.4093    2.4310 N   0  0  0  0  0  0  0  0  0  0  0  0
   -0.4908   -0.0979    0.0319 N   0  0  0  0  0  0  0  0  0  0  0  0
    0.8959   -0.3229    0.0826 C   0  0  0  0  0  0  0  0  0  0  0  0
    1.4256   -1.5900   -0.0515 C   0  0  0  0  0  0  0  0  0  0  0  0
    2.7851   -1.8243   -0.0037 C   0  0  0  0  0  0  0  0  0  0  0  0
    3.6564   -0.7506    0.1860 C   0  0  0  0  0  0  0  0  0  0  0  0
    3.1601    0.5230    0.3229 C   0  0  0  0  0  0  0  0  0  0  0  0
    4.2982    1.8300    0.5583 Cl  0  0  0  0  0  0  0  0  0  0  0  0
    1.7939    0.7259    0.2706 C   0  0  0  0  0  0  0  0  0  0  0  0
  1  2  1  0
  2  3  1  0
  2  4  1  0
  4  5  2  0
  5  6  1  0
  5  7  1  0
  7  8  2  0
  8  9  1  0
  8 10  1  0
 10 11  1  0
 11 12  2  0
 12 13  1  0
 13 14  2  0
 14 15  1  0
 15 16  1  0
 15 17  2  0
 10  2  1  0
 17 11  1  0
M  END
>  <zinc_id>  (89) 
ZINC000001666576

>  <ortholog_name>  (89) 
DRTS_PLAFK

>  <gene_name>  (89) 
DRTS_PLAFK

>  <affinity>  (89) 
6.28

>  <chembldocid>  (89) 
17662

>  <title>  (89) 
None

>  <reference.pubmed_id>  (89) 
14736247

>  <reference.doi>  (89) 
None

>  <reference.chembl_id>  (89) 
CHEMBL1138835

>  <reference.journal>  (89) 
J. Med. Chem.

>  <reference.year>  (89) 
2004

$$$$

     RDKit          3D

 17 18  0  0  0  0  0  0  0  0999 V2000
   -0.9102   -0.9614   -2.1758 C   0  0  0  0  0  0  0  0  0  0  0  0
   -1.1540    0.1803   -1.2192 C   0  0  0  0  0  0  0  0  0  0  0  0
   -0.5739    1.4927   -1.7649 C   0  0  0  0  0  0  0  0  0  0  0  0
   -2.5582    0.3819   -1.0795 N   0  0  0  0  0  0  0  0  0  0  0  0
   -3.2286    0.3354    0.0142 C   0  0  0  0  0  0  0  0  0  0  0  0
   -4.6530    0.5627   -0.0083 N   0  0  0  0  0  0  0  0  0  0  0  0
   -2.5440    0.0608    1.2140 N   0  0  0  0  0  0  0  0  0  0  0  0
   -1.2706   -0.1364    1.1915 C   0  0  0  0  0  0  0  0  0  0  0  0
   -0.6317   -0.4093    2.4310 N   0  0  0  0  0  0  0  0  0  0  0  0
   -0.4908   -0.0979    0.0319 N   0  0  0  0  0  0  0  0  0  0  0  0
    0.8959   -0.3229    0.0826 C   0  0  0  0  0  0  0  0  0  0  0  0
    1.4256   -1.5900   -0.0515 C   0  0  0  0  0  0  0  0  0  0  0  0
    2.7851   -1.8243   -0.0037 C   0  0  0  0  0  0  0  0  0  0  0  0
    3.6564   -0.7506    0.1860 C   0  0  0  0  0  0  0  0  0  0  0  0
    3.1601    0.5230    0.3229 C   0  0  0  0  0  0  0  0  0  0  0  0
    4.2982    1.8300    0.5583 Cl  0  0  0  0  0  0  0  0  0  0  0  0
    1.7939    0.7259    0.2706 C   0  0  0  0  0  0  0  0  0  0  0  0
  1  2  1  0
  2  3  1  0
  2  4  1  0
  4  5  2  0
  5  6  1  0
  5  7  1  0
  7  8  2  0
  8  9  1  0
  8 10  1  0
 10 11  1  0
 11 12  2  0
 12 13  1  0
 13 14  2  0
 14 15  1  0
 15 16  1  0
 15 17  2  0
 10  2  1  0
 17 11  1  0
M  END
>  <zinc_id>  (90) 
ZINC000001666576

>  <ortholog_name>  (90) 
DRTS_PLAFK

>  <gene_name>  (90) 
DRTS_PLAFK

>  <affinity>  (90) 
7.05

>  <chembldocid>  (90) 
21047

>  <title>  (90) 
None

>  <reference.pubmed_id>  (90) 
15293997

>  <reference.doi>  (90) 
None

>  <reference.chembl_id>  (90) 
CHEMBL1138679

>  <reference.journal>  (90) 
J. Med. Chem.

>  <reference.year>  (90) 
2004

$$$$

     RDKit          3D

 17 18  0  0  0  0  0  0  0  0999 V2000
   -2.7379    1.6160    1.6849 C   0  0  0  0  0  0  0  0  0  0  0  0
   -1.4528    0.8851    1.3356 C   0  0  0  0  0  0  0  0  0  0  0  0
   -1.5689    0.7228   -0.3271 C   0  0  2  0  0  0  0  0  0  0  0  0
   -2.8490   -0.0787   -0.3169 N   0  0  0  0  0  0  0  0  0  0  0  0
   -2.9594   -1.3119   -0.4045 C   0  0  0  0  0  0  0  0  0  0  0  0
   -4.2611   -1.8944   -0.3764 N   0  0  0  0  0  0  0  0  0  0  0  0
   -1.8193   -2.1887   -0.5344 N   0  0  0  0  0  0  0  0  0  0  0  0
   -0.6627   -1.6666   -0.5590 C   0  0  0  0  0  0  0  0  0  0  0  0
    0.5278   -2.5027   -0.6887 N   0  0  0  0  0  0  0  0  0  0  0  0
   -0.4645   -0.3028   -0.4664 N   0  0  0  0  0  0  0  0  0  0  0  0
    0.8835    0.2539   -0.4989 C   0  0  0  0  0  0  0  0  0  0  0  0
    1.5766    0.4227    0.6730 C   0  0  0  0  0  0  0  0  0  0  0  0
    2.8732    0.9542    0.6813 C   0  0  0  0  0  0  0  0  0  0  0  0
    3.4946    1.3250   -0.4897 C   0  0  0  0  0  0  0  0  0  0  0  0
    5.1207    1.9888   -0.4521 Cl  0  0  0  0  0  0  0  0  0  0  0  0
    2.7944    1.1533   -1.6622 C   0  0  0  0  0  0  0  0  0  0  0  0
    1.5048    0.6241   -1.6653 C   0  0  0  0  0  0  0  0  0  0  0  0
  1  2  1  0
  3  2  1  1
  3  4  1  0
  4  5  2  0
  5  6  1  0
  5  7  1  0
  7  8  2  0
  8  9  1  0
  8 10  1  0
 10 11  1  0
 11 12  2  0
 12 13  1  0
 13 14  2  0
 14 15  1  0
 14 16  1  0
 16 17  2  0
 10  3  1  0
 17 11  1  0
M  END
>  <zinc_id>  (91) 
ZINC000001722911

>  <ortholog_name>  (91) 
DRTS_PLAFK

>  <gene_name>  (91) 
DRTS_PLAFK

>  <affinity>  (91) 
6.72

>  <chembldocid>  (91) 
15522

>  <title>  (91) 
None

>  <reference.pubmed_id>  (91) 
10893311

>  <reference.doi>  (91) 
None

>  <reference.chembl_id>  (91) 
CHEMBL1133696

>  <reference.journal>  (91) 
J. Med. Chem.

>  <reference.year>  (91) 
2000

$$$$

     RDKit          3D

 17 18  0  0  0  0  0  0  0  0999 V2000
   -2.7379    1.6160    1.6849 C   0  0  0  0  0  0  0  0  0  0  0  0
   -1.4528    0.8851    1.3356 C   0  0  0  0  0  0  0  0  0  0  0  0
   -1.5689    0.7228   -0.3271 C   0  0  2  0  0  0  0  0  0  0  0  0
   -2.8490   -0.0787   -0.3169 N   0  0  0  0  0  0  0  0  0  0  0  0
   -2.9594   -1.3119   -0.4045 C   0  0  0  0  0  0  0  0  0  0  0  0
   -4.2611   -1.8944   -0.3764 N   0  0  0  0  0  0  0  0  0  0  0  0
   -1.8193   -2.1887   -0.5344 N   0  0  0  0  0  0  0  0  0  0  0  0
   -0.6627   -1.6666   -0.5590 C   0  0  0  0  0  0  0  0  0  0  0  0
    0.5278   -2.5027   -0.6887 N   0  0  0  0  0  0  0  0  0  0  0  0
   -0.4645   -0.3028   -0.4664 N   0  0  0  0  0  0  0  0  0  0  0  0
    0.8835    0.2539   -0.4989 C   0  0  0  0  0  0  0  0  0  0  0  0
    1.5766    0.4227    0.6730 C   0  0  0  0  0  0  0  0  0  0  0  0
    2.8732    0.9542    0.6813 C   0  0  0  0  0  0  0  0  0  0  0  0
    3.4946    1.3250   -0.4897 C   0  0  0  0  0  0  0  0  0  0  0  0
    5.1207    1.9888   -0.4521 Cl  0  0  0  0  0  0  0  0  0  0  0  0
    2.7944    1.1533   -1.6622 C   0  0  0  0  0  0  0  0  0  0  0  0
    1.5048    0.6241   -1.6653 C   0  0  0  0  0  0  0  0  0  0  0  0
  1  2  1  0
  3  2  1  1
  3  4  1  0
  4  5  2  0
  5  6  1  0
  5  7  1  0
  7  8  2  0
  8  9  1  0
  8 10  1  0
 10 11  1  0
 11 12  2  0
 12 13  1  0
 13 14  2  0
 14 15  1  0
 14 16  1  0
 16 17  2  0
 10  3  1  0
 17 11  1  0
M  END
>  <zinc_id>  (92) 
ZINC000001722911

>  <ortholog_name>  (92) 
DRTS_PLAFK

>  <gene_name>  (92) 
DRTS_PLAFK

>  <affinity>  (92) 
8.44

>  <chembldocid>  (92) 
15522

>  <title>  (92) 
None

>  <reference.pubmed_id>  (92) 
10893311

>  <reference.doi>  (92) 
None

>  <reference.chembl_id>  (92) 
CHEMBL1133696

>  <reference.journal>  (92) 
J. Med. Chem.

>  <reference.year>  (92) 
2000

$$$$

     RDKit          3D

 21 23  0  0  0  0  0  0  0  0999 V2000
   -2.1380    4.1669    0.6599 N   0  0  0  0  0  0  0  0  0  0  0  0
   -1.2474    3.0430    0.4902 C   0  0  0  0  0  0  0  0  0  0  0  0
   -1.2496    2.1222    1.2705 N   0  0  0  0  0  0  0  0  0  0  0  0
   -0.4345    0.8415    1.3280 C   0  0  1  0  0  0  0  0  0  0  0  0
   -1.4844   -0.1591    0.7163 C   0  0  0  0  0  0  0  0  0  0  0  0
   -1.6777   -1.3687    1.3144 C   0  0  0  0  0  0  0  0  0  0  0  0
   -2.6216   -2.2732    0.7679 C   0  0  0  0  0  0  0  0  0  0  0  0
   -3.3328   -1.9354   -0.3504 C   0  0  0  0  0  0  0  0  0  0  0  0
   -3.1363   -0.7331   -0.9396 C   0  0  0  0  0  0  0  0  0  0  0  0
   -2.2108    0.1358   -0.3912 C   0  0  0  0  0  0  0  0  0  0  0  0
    0.5060    0.9296    0.0724 N   0  0  0  0  0  0  0  0  0  0  0  0
    1.3672   -0.2051   -0.0509 C   0  0  0  0  0  0  0  0  0  0  0  0
    2.2626   -0.3095   -1.0871 C   0  0  0  0  0  0  0  0  0  0  0  0
    3.1133   -1.3865   -1.2461 C   0  0  0  0  0  0  0  0  0  0  0  0
    3.1000   -2.4300   -0.3482 C   0  0  0  0  0  0  0  0  0  0  0  0
    4.1779   -3.8234   -0.5253 Cl  0  0  0  0  0  0  0  0  0  0  0  0
    2.2119   -2.3487    0.6983 C   0  0  0  0  0  0  0  0  0  0  0  0
    1.3761   -1.2597    0.8283 C   0  0  0  0  0  0  0  0  0  0  0  0
    0.4549    2.0013   -0.7682 C   0  0  0  0  0  0  0  0  0  0  0  0
    1.3166    2.0378   -1.8814 N   0  0  0  0  0  0  0  0  0  0  0  0
   -0.3533    2.9542   -0.5578 N   0  0  0  0  0  0  0  0  0  0  0  0
  1  2  1  0
  2  3  2  0
  3  4  1  0
  4  5  1  6
  5  6  2  0
  6  7  1  0
  7  8  2  0
  8  9  1  0
  9 10  2  0
  4 11  1  0
 11 12  1  0
 12 13  2  0
 13 14  1  0
 14 15  2  0
 15 16  1  0
 15 17  1  0
 17 18  2  0
 11 19  1  0
 19 20  1  0
 19 21  2  0
 21  2  1  0
 10  5  1  0
 18 12  1  0
M  END
>  <zinc_id>  (93) 
ZINC000001748451

>  <ortholog_name>  (93) 
DRTS_PLAFK

>  <gene_name>  (93) 
DRTS_PLAFK

>  <affinity>  (93) 
5.73

>  <chembldocid>  (93) 
17662

>  <title>  (93) 
None

>  <reference.pubmed_id>  (93) 
14736247

>  <reference.doi>  (93) 
None

>  <reference.chembl_id>  (93) 
CHEMBL1138835

>  <reference.journal>  (93) 
J. Med. Chem.

>  <reference.year>  (93) 
2004

$$$$

     RDKit          3D

 21 23  0  0  0  0  0  0  0  0999 V2000
   -2.1380    4.1669    0.6599 N   0  0  0  0  0  0  0  0  0  0  0  0
   -1.2474    3.0430    0.4902 C   0  0  0  0  0  0  0  0  0  0  0  0
   -1.2496    2.1222    1.2705 N   0  0  0  0  0  0  0  0  0  0  0  0
   -0.4345    0.8415    1.3280 C   0  0  1  0  0  0  0  0  0  0  0  0
   -1.4844   -0.1591    0.7163 C   0  0  0  0  0  0  0  0  0  0  0  0
   -1.6777   -1.3687    1.3144 C   0  0  0  0  0  0  0  0  0  0  0  0
   -2.6216   -2.2732    0.7679 C   0  0  0  0  0  0  0  0  0  0  0  0
   -3.3328   -1.9354   -0.3504 C   0  0  0  0  0  0  0  0  0  0  0  0
   -3.1363   -0.7331   -0.9396 C   0  0  0  0  0  0  0  0  0  0  0  0
   -2.2108    0.1358   -0.3912 C   0  0  0  0  0  0  0  0  0  0  0  0
    0.5060    0.9296    0.0724 N   0  0  0  0  0  0  0  0  0  0  0  0
    1.3672   -0.2051   -0.0509 C   0  0  0  0  0  0  0  0  0  0  0  0
    2.2626   -0.3095   -1.0871 C   0  0  0  0  0  0  0  0  0  0  0  0
    3.1133   -1.3865   -1.2461 C   0  0  0  0  0  0  0  0  0  0  0  0
    3.1000   -2.4300   -0.3482 C   0  0  0  0  0  0  0  0  0  0  0  0
    4.1779   -3.8234   -0.5253 Cl  0  0  0  0  0  0  0  0  0  0  0  0
    2.2119   -2.3487    0.6983 C   0  0  0  0  0  0  0  0  0  0  0  0
    1.3761   -1.2597    0.8283 C   0  0  0  0  0  0  0  0  0  0  0  0
    0.4549    2.0013   -0.7682 C   0  0  0  0  0  0  0  0  0  0  0  0
    1.3166    2.0378   -1.8814 N   0  0  0  0  0  0  0  0  0  0  0  0
   -0.3533    2.9542   -0.5578 N   0  0  0  0  0  0  0  0  0  0  0  0
  1  2  1  0
  2  3  2  0
  3  4  1  0
  4  5  1  6
  5  6  2  0
  6  7  1  0
  7  8  2  0
  8  9  1  0
  9 10  2  0
  4 11  1  0
 11 12  1  0
 12 13  2  0
 13 14  1  0
 14 15  2  0
 15 16  1  0
 15 17  1  0
 17 18  2  0
 11 19  1  0
 19 20  1  0
 19 21  2  0
 21  2  1  0
 10  5  1  0
 18 12  1  0
M  END
>  <zinc_id>  (94) 
ZINC000001748451

>  <ortholog_name>  (94) 
DRTS_PLAFK

>  <gene_name>  (94) 
DRTS_PLAFK

>  <affinity>  (94) 
6.71

>  <chembldocid>  (94) 
17662

>  <title>  (94) 
None

>  <reference.pubmed_id>  (94) 
14736247

>  <reference.doi>  (94) 
None

>  <reference.chembl_id>  (94) 
CHEMBL1138835

>  <reference.journal>  (94) 
J. Med. Chem.

>  <reference.year>  (94) 
2004

$$$$

     RDKit          3D

 21 23  0  0  0  0  0  0  0  0999 V2000
   -2.1380    4.1669    0.6599 N   0  0  0  0  0  0  0  0  0  0  0  0
   -1.2474    3.0430    0.4902 C   0  0  0  0  0  0  0  0  0  0  0  0
   -1.2496    2.1222    1.2705 N   0  0  0  0  0  0  0  0  0  0  0  0
   -0.4345    0.8415    1.3280 C   0  0  1  0  0  0  0  0  0  0  0  0
   -1.4844   -0.1591    0.7163 C   0  0  0  0  0  0  0  0  0  0  0  0
   -1.6777   -1.3687    1.3144 C   0  0  0  0  0  0  0  0  0  0  0  0
   -2.6216   -2.2732    0.7679 C   0  0  0  0  0  0  0  0  0  0  0  0
   -3.3328   -1.9354   -0.3504 C   0  0  0  0  0  0  0  0  0  0  0  0
   -3.1363   -0.7331   -0.9396 C   0  0  0  0  0  0  0  0  0  0  0  0
   -2.2108    0.1358   -0.3912 C   0  0  0  0  0  0  0  0  0  0  0  0
    0.5060    0.9296    0.0724 N   0  0  0  0  0  0  0  0  0  0  0  0
    1.3672   -0.2051   -0.0509 C   0  0  0  0  0  0  0  0  0  0  0  0
    2.2626   -0.3095   -1.0871 C   0  0  0  0  0  0  0  0  0  0  0  0
    3.1133   -1.3865   -1.2461 C   0  0  0  0  0  0  0  0  0  0  0  0
    3.1000   -2.4300   -0.3482 C   0  0  0  0  0  0  0  0  0  0  0  0
    4.1779   -3.8234   -0.5253 Cl  0  0  0  0  0  0  0  0  0  0  0  0
    2.2119   -2.3487    0.6983 C   0  0  0  0  0  0  0  0  0  0  0  0
    1.3761   -1.2597    0.8283 C   0  0  0  0  0  0  0  0  0  0  0  0
    0.4549    2.0013   -0.7682 C   0  0  0  0  0  0  0  0  0  0  0  0
    1.3166    2.0378   -1.8814 N   0  0  0  0  0  0  0  0  0  0  0  0
   -0.3533    2.9542   -0.5578 N   0  0  0  0  0  0  0  0  0  0  0  0
  1  2  1  0
  2  3  2  0
  3  4  1  0
  4  5  1  6
  5  6  2  0
  6  7  1  0
  7  8  2  0
  8  9  1  0
  9 10  2  0
  4 11  1  0
 11 12  1  0
 12 13  2  0
 13 14  1  0
 14 15  2  0
 15 16  1  0
 15 17  1  0
 17 18  2  0
 11 19  1  0
 19 20  1  0
 19 21  2  0
 21  2  1  0
 10  5  1  0
 18 12  1  0
M  END
>  <zinc_id>  (95) 
ZINC000001748451

>  <ortholog_name>  (95) 
DRTS_PLAFK

>  <gene_name>  (95) 
DRTS_PLAFK

>  <affinity>  (95) 
5.61

>  <chembldocid>  (95) 
17662

>  <title>  (95) 
None

>  <reference.pubmed_id>  (95) 
14736247

>  <reference.doi>  (95) 
None

>  <reference.chembl_id>  (95) 
CHEMBL1138835

>  <reference.journal>  (95) 
J. Med. Chem.

>  <reference.year>  (95) 
2004

$$$$

     RDKit          3D

 21 23  0  0  0  0  0  0  0  0999 V2000
   -2.1380    4.1669    0.6599 N   0  0  0  0  0  0  0  0  0  0  0  0
   -1.2474    3.0430    0.4902 C   0  0  0  0  0  0  0  0  0  0  0  0
   -1.2496    2.1222    1.2705 N   0  0  0  0  0  0  0  0  0  0  0  0
   -0.4345    0.8415    1.3280 C   0  0  1  0  0  0  0  0  0  0  0  0
   -1.4844   -0.1591    0.7163 C   0  0  0  0  0  0  0  0  0  0  0  0
   -1.6777   -1.3687    1.3144 C   0  0  0  0  0  0  0  0  0  0  0  0
   -2.6216   -2.2732    0.7679 C   0  0  0  0  0  0  0  0  0  0  0  0
   -3.3328   -1.9354   -0.3504 C   0  0  0  0  0  0  0  0  0  0  0  0
   -3.1363   -0.7331   -0.9396 C   0  0  0  0  0  0  0  0  0  0  0  0
   -2.2108    0.1358   -0.3912 C   0  0  0  0  0  0  0  0  0  0  0  0
    0.5060    0.9296    0.0724 N   0  0  0  0  0  0  0  0  0  0  0  0
    1.3672   -0.2051   -0.0509 C   0  0  0  0  0  0  0  0  0  0  0  0
    2.2626   -0.3095   -1.0871 C   0  0  0  0  0  0  0  0  0  0  0  0
    3.1133   -1.3865   -1.2461 C   0  0  0  0  0  0  0  0  0  0  0  0
    3.1000   -2.4300   -0.3482 C   0  0  0  0  0  0  0  0  0  0  0  0
    4.1779   -3.8234   -0.5253 Cl  0  0  0  0  0  0  0  0  0  0  0  0
    2.2119   -2.3487    0.6983 C   0  0  0  0  0  0  0  0  0  0  0  0
    1.3761   -1.2597    0.8283 C   0  0  0  0  0  0  0  0  0  0  0  0
    0.4549    2.0013   -0.7682 C   0  0  0  0  0  0  0  0  0  0  0  0
    1.3166    2.0378   -1.8814 N   0  0  0  0  0  0  0  0  0  0  0  0
   -0.3533    2.9542   -0.5578 N   0  0  0  0  0  0  0  0  0  0  0  0
  1  2  1  0
  2  3  2  0
  3  4  1  0
  4  5  1  6
  5  6  2  0
  6  7  1  0
  7  8  2  0
  8  9  1  0
  9 10  2  0
  4 11  1  0
 11 12  1  0
 12 13  2  0
 13 14  1  0
 14 15  2  0
 15 16  1  0
 15 17  1  0
 17 18  2  0
 11 19  1  0
 19 20  1  0
 19 21  2  0
 21  2  1  0
 10  5  1  0
 18 12  1  0
M  END
>  <zinc_id>  (96) 
ZINC000001748451

>  <ortholog_name>  (96) 
DRTS_PLAFK

>  <gene_name>  (96) 
DRTS_PLAFK

>  <affinity>  (96) 
8.35

>  <chembldocid>  (96) 
15522

>  <title>  (96) 
None

>  <reference.pubmed_id>  (96) 
10893311

>  <reference.doi>  (96) 
None

>  <reference.chembl_id>  (96) 
CHEMBL1133696

>  <reference.journal>  (96) 
J. Med. Chem.

>  <reference.year>  (96) 
2000

$$$$

     RDKit          3D

 21 23  0  0  0  0  0  0  0  0999 V2000
   -2.1380    4.1669    0.6599 N   0  0  0  0  0  0  0  0  0  0  0  0
   -1.2474    3.0430    0.4902 C   0  0  0  0  0  0  0  0  0  0  0  0
   -1.2496    2.1222    1.2705 N   0  0  0  0  0  0  0  0  0  0  0  0
   -0.4345    0.8415    1.3280 C   0  0  1  0  0  0  0  0  0  0  0  0
   -1.4844   -0.1591    0.7163 C   0  0  0  0  0  0  0  0  0  0  0  0
   -1.6777   -1.3687    1.3144 C   0  0  0  0  0  0  0  0  0  0  0  0
   -2.6216   -2.2732    0.7679 C   0  0  0  0  0  0  0  0  0  0  0  0
   -3.3328   -1.9354   -0.3504 C   0  0  0  0  0  0  0  0  0  0  0  0
   -3.1363   -0.7331   -0.9396 C   0  0  0  0  0  0  0  0  0  0  0  0
   -2.2108    0.1358   -0.3912 C   0  0  0  0  0  0  0  0  0  0  0  0
    0.5060    0.9296    0.0724 N   0  0  0  0  0  0  0  0  0  0  0  0
    1.3672   -0.2051   -0.0509 C   0  0  0  0  0  0  0  0  0  0  0  0
    2.2626   -0.3095   -1.0871 C   0  0  0  0  0  0  0  0  0  0  0  0
    3.1133   -1.3865   -1.2461 C   0  0  0  0  0  0  0  0  0  0  0  0
    3.1000   -2.4300   -0.3482 C   0  0  0  0  0  0  0  0  0  0  0  0
    4.1779   -3.8234   -0.5253 Cl  0  0  0  0  0  0  0  0  0  0  0  0
    2.2119   -2.3487    0.6983 C   0  0  0  0  0  0  0  0  0  0  0  0
    1.3761   -1.2597    0.8283 C   0  0  0  0  0  0  0  0  0  0  0  0
    0.4549    2.0013   -0.7682 C   0  0  0  0  0  0  0  0  0  0  0  0
    1.3166    2.0378   -1.8814 N   0  0  0  0  0  0  0  0  0  0  0  0
   -0.3533    2.9542   -0.5578 N   0  0  0  0  0  0  0  0  0  0  0  0
  1  2  1  0
  2  3  2  0
  3  4  1  0
  4  5  1  6
  5  6  2  0
  6  7  1  0
  7  8  2  0
  8  9  1  0
  9 10  2  0
  4 11  1  0
 11 12  1  0
 12 13  2  0
 13 14  1  0
 14 15  2  0
 15 16  1  0
 15 17  1  0
 17 18  2  0
 11 19  1  0
 19 20  1  0
 19 21  2  0
 21  2  1  0
 10  5  1  0
 18 12  1  0
M  END
>  <zinc_id>  (97) 
ZINC000001748451

>  <ortholog_name>  (97) 
DRTS_PLAFK

>  <gene_name>  (97) 
DRTS_PLAFK

>  <affinity>  (97) 
8.35

>  <chembldocid>  (97) 
17662

>  <title>  (97) 
None

>  <reference.pubmed_id>  (97) 
14736247

>  <reference.doi>  (97) 
None

>  <reference.chembl_id>  (97) 
CHEMBL1138835

>  <reference.journal>  (97) 
J. Med. Chem.

>  <reference.year>  (97) 
2004

$$$$

     RDKit          3D

 21 23  0  0  0  0  0  0  0  0999 V2000
   -2.1380    4.1669    0.6599 N   0  0  0  0  0  0  0  0  0  0  0  0
   -1.2474    3.0430    0.4902 C   0  0  0  0  0  0  0  0  0  0  0  0
   -1.2496    2.1222    1.2705 N   0  0  0  0  0  0  0  0  0  0  0  0
   -0.4345    0.8415    1.3280 C   0  0  1  0  0  0  0  0  0  0  0  0
   -1.4844   -0.1591    0.7163 C   0  0  0  0  0  0  0  0  0  0  0  0
   -1.6777   -1.3687    1.3144 C   0  0  0  0  0  0  0  0  0  0  0  0
   -2.6216   -2.2732    0.7679 C   0  0  0  0  0  0  0  0  0  0  0  0
   -3.3328   -1.9354   -0.3504 C   0  0  0  0  0  0  0  0  0  0  0  0
   -3.1363   -0.7331   -0.9396 C   0  0  0  0  0  0  0  0  0  0  0  0
   -2.2108    0.1358   -0.3912 C   0  0  0  0  0  0  0  0  0  0  0  0
    0.5060    0.9296    0.0724 N   0  0  0  0  0  0  0  0  0  0  0  0
    1.3672   -0.2051   -0.0509 C   0  0  0  0  0  0  0  0  0  0  0  0
    2.2626   -0.3095   -1.0871 C   0  0  0  0  0  0  0  0  0  0  0  0
    3.1133   -1.3865   -1.2461 C   0  0  0  0  0  0  0  0  0  0  0  0
    3.1000   -2.4300   -0.3482 C   0  0  0  0  0  0  0  0  0  0  0  0
    4.1779   -3.8234   -0.5253 Cl  0  0  0  0  0  0  0  0  0  0  0  0
    2.2119   -2.3487    0.6983 C   0  0  0  0  0  0  0  0  0  0  0  0
    1.3761   -1.2597    0.8283 C   0  0  0  0  0  0  0  0  0  0  0  0
    0.4549    2.0013   -0.7682 C   0  0  0  0  0  0  0  0  0  0  0  0
    1.3166    2.0378   -1.8814 N   0  0  0  0  0  0  0  0  0  0  0  0
   -0.3533    2.9542   -0.5578 N   0  0  0  0  0  0  0  0  0  0  0  0
  1  2  1  0
  2  3  2  0
  3  4  1  0
  4  5  1  6
  5  6  2  0
  6  7  1  0
  7  8  2  0
  8  9  1  0
  9 10  2  0
  4 11  1  0
 11 12  1  0
 12 13  2  0
 13 14  1  0
 14 15  2  0
 15 16  1  0
 15 17  1  0
 17 18  2  0
 11 19  1  0
 19 20  1  0
 19 21  2  0
 21  2  1  0
 10  5  1  0
 18 12  1  0
M  END
>  <zinc_id>  (98) 
ZINC000001748451

>  <ortholog_name>  (98) 
DRTS_PLAFK

>  <gene_name>  (98) 
DRTS_PLAFK

>  <affinity>  (98) 
7.31

>  <chembldocid>  (98) 
15522

>  <title>  (98) 
None

>  <reference.pubmed_id>  (98) 
10893311

>  <reference.doi>  (98) 
None

>  <reference.chembl_id>  (98) 
CHEMBL1133696

>  <reference.journal>  (98) 
J. Med. Chem.

>  <reference.year>  (98) 
2000

$$$$

     RDKit          3D

 21 23  0  0  0  0  0  0  0  0999 V2000
   -2.1380    4.1669    0.6599 N   0  0  0  0  0  0  0  0  0  0  0  0
   -1.2474    3.0430    0.4902 C   0  0  0  0  0  0  0  0  0  0  0  0
   -1.2496    2.1222    1.2705 N   0  0  0  0  0  0  0  0  0  0  0  0
   -0.4345    0.8415    1.3280 C   0  0  1  0  0  0  0  0  0  0  0  0
   -1.4844   -0.1591    0.7163 C   0  0  0  0  0  0  0  0  0  0  0  0
   -1.6777   -1.3687    1.3144 C   0  0  0  0  0  0  0  0  0  0  0  0
   -2.6216   -2.2732    0.7679 C   0  0  0  0  0  0  0  0  0  0  0  0
   -3.3328   -1.9354   -0.3504 C   0  0  0  0  0  0  0  0  0  0  0  0
   -3.1363   -0.7331   -0.9396 C   0  0  0  0  0  0  0  0  0  0  0  0
   -2.2108    0.1358   -0.3912 C   0  0  0  0  0  0  0  0  0  0  0  0
    0.5060    0.9296    0.0724 N   0  0  0  0  0  0  0  0  0  0  0  0
    1.3672   -0.2051   -0.0509 C   0  0  0  0  0  0  0  0  0  0  0  0
    2.2626   -0.3095   -1.0871 C   0  0  0  0  0  0  0  0  0  0  0  0
    3.1133   -1.3865   -1.2461 C   0  0  0  0  0  0  0  0  0  0  0  0
    3.1000   -2.4300   -0.3482 C   0  0  0  0  0  0  0  0  0  0  0  0
    4.1779   -3.8234   -0.5253 Cl  0  0  0  0  0  0  0  0  0  0  0  0
    2.2119   -2.3487    0.6983 C   0  0  0  0  0  0  0  0  0  0  0  0
    1.3761   -1.2597    0.8283 C   0  0  0  0  0  0  0  0  0  0  0  0
    0.4549    2.0013   -0.7682 C   0  0  0  0  0  0  0  0  0  0  0  0
    1.3166    2.0378   -1.8814 N   0  0  0  0  0  0  0  0  0  0  0  0
   -0.3533    2.9542   -0.5578 N   0  0  0  0  0  0  0  0  0  0  0  0
  1  2  1  0
  2  3  2  0
  3  4  1  0
  4  5  1  6
  5  6  2  0
  6  7  1  0
  7  8  2  0
  8  9  1  0
  9 10  2  0
  4 11  1  0
 11 12  1  0
 12 13  2  0
 13 14  1  0
 14 15  2  0
 15 16  1  0
 15 17  1  0
 17 18  2  0
 11 19  1  0
 19 20  1  0
 19 21  2  0
 21  2  1  0
 10  5  1  0
 18 12  1  0
M  END
>  <zinc_id>  (99) 
ZINC000001748451

>  <ortholog_name>  (99) 
DRTS_PLAFK

>  <gene_name>  (99) 
DRTS_PLAFK

>  <affinity>  (99) 
7.31

>  <chembldocid>  (99) 
17662

>  <title>  (99) 
None

>  <reference.pubmed_id>  (99) 
14736247

>  <reference.doi>  (99) 
None

>  <reference.chembl_id>  (99) 
CHEMBL1138835

>  <reference.journal>  (99) 
J. Med. Chem.

>  <reference.year>  (99) 
2004

$$$$

     RDKit          3D

 21 23  0  0  0  0  0  0  0  0999 V2000
   -2.3692   -3.7411   -0.3673 N   0  0  0  0  0  0  0  0  0  0  0  0
   -1.5274   -2.5801   -0.3290 C   0  0  0  0  0  0  0  0  0  0  0  0
   -1.6734   -1.6632   -1.1534 N   0  0  0  0  0  0  0  0  0  0  0  0
   -0.8470   -0.3885   -1.1923 C   0  0  1  0  0  0  0  0  0  0  0  0
   -1.7788    0.4955   -0.2681 C   0  0  0  0  0  0  0  0  0  0  0  0
   -3.1187    0.5064   -0.4417 C   0  0  0  0  0  0  0  0  0  0  0  0
   -3.9078    1.2797    0.3723 C   0  0  0  0  0  0  0  0  0  0  0  0
   -3.3557    2.0351    1.3517 C   0  0  0  0  0  0  0  0  0  0  0  0
   -1.9985    2.0476    1.5555 C   0  0  0  0  0  0  0  0  0  0  0  0
   -1.2094    1.2388    0.6990 C   0  0  0  0  0  0  0  0  0  0  0  0
    0.3212   -0.6220   -0.3027 N   0  0  0  0  0  0  0  0  0  0  0  0
    1.4530    0.2574   -0.4342 C   0  0  0  0  0  0  0  0  0  0  0  0
    1.5682    1.3536    0.3715 C   0  0  0  0  0  0  0  0  0  0  0  0
    2.6314    2.2431    0.2995 C   0  0  0  0  0  0  0  0  0  0  0  0
    3.6123    1.9991   -0.6330 C   0  0  0  0  0  0  0  0  0  0  0  0
    3.5406    0.9057   -1.4691 C   0  0  0  0  0  0  0  0  0  0  0  0
    4.8062    0.5959   -2.6682 Cl  0  0  0  0  0  0  0  0  0  0  0  0
    2.4545    0.0418   -1.3592 C   0  0  0  0  0  0  0  0  0  0  0  0
    0.4059   -1.6528    0.6046 C   0  0  0  0  0  0  0  0  0  0  0  0
    1.4580   -1.7441    1.6062 N   0  0  0  0  0  0  0  0  0  0  0  0
   -0.4654   -2.6081    0.6084 N   0  0  0  0  0  0  0  0  0  0  0  0
  1  2  1  0
  2  3  2  0
  3  4  1  0
  4  5  1  1
  5  6  2  0
  6  7  1  0
  7  8  2  0
  8  9  1  0
  9 10  2  0
  4 11  1  0
 11 12  1  0
 12 13  2  0
 13 14  1  0
 14 15  2  0
 15 16  1  0
 16 17  1  0
 16 18  2  0
 11 19  1  0
 19 20  1  0
 19 21  2  0
 21  2  1  0
 10  5  1  0
 18 12  1  0
M  END
>  <zinc_id>  (100) 
ZINC000001749924

>  <ortholog_name>  (100) 
DRTS_PLAFK

>  <gene_name>  (100) 
DRTS_PLAFK

>  <affinity>  (100) 
8.00

>  <chembldocid>  (100) 
15522

>  <title>  (100) 
None

>  <reference.pubmed_id>  (100) 
10893311

>  <reference.doi>  (100) 
None

>  <reference.chembl_id>  (100) 
CHEMBL1133696

>  <reference.journal>  (100) 
J. Med. Chem.

>  <reference.year>  (100) 
2000

$$$$

     RDKit          3D

 21 23  0  0  0  0  0  0  0  0999 V2000
    2.4750    3.4377   -1.5993 N   0  0  0  0  0  0  0  0  0  0  0  0
    1.4938    2.4373   -1.2566 C   0  0  0  0  0  0  0  0  0  0  0  0
    1.6848    1.3057   -1.7098 N   0  0  0  0  0  0  0  0  0  0  0  0
    0.7584    0.0961   -1.4636 C   0  0  1  0  0  0  0  0  0  0  0  0
    1.6563   -0.6105   -0.3259 C   0  0  0  0  0  0  0  0  0  0  0  0
    1.8291   -1.9538   -0.4474 C   0  0  0  0  0  0  0  0  0  0  0  0
    2.5928   -2.6639    0.4894 C   0  0  0  0  0  0  0  0  0  0  0  0
    3.1441   -1.9292    1.5175 C   0  0  0  0  0  0  0  0  0  0  0  0
    2.9568   -0.5695    1.6220 C   0  0  0  0  0  0  0  0  0  0  0  0
    2.1887    0.0925    0.6649 C   0  0  0  0  0  0  0  0  0  0  0  0
   -0.3606    0.6418   -0.5816 N   0  0  0  0  0  0  0  0  0  0  0  0
   -1.3411   -0.3130   -0.2265 C   0  0  0  0  0  0  0  0  0  0  0  0
   -1.3028   -1.6254   -0.6338 C   0  0  0  0  0  0  0  0  0  0  0  0
   -2.3110   -2.5105   -0.2406 C   0  0  0  0  0  0  0  0  0  0  0  0
   -3.3592   -2.0898    0.5590 C   0  0  0  0  0  0  0  0  0  0  0  0
   -3.4045   -0.7739    0.9718 C   0  0  0  0  0  0  0  0  0  0  0  0
   -4.6869   -0.1407    1.9846 Cl  0  0  0  0  0  0  0  0  0  0  0  0
   -2.3904    0.0771    0.5648 C   0  0  0  0  0  0  0  0  0  0  0  0
   -0.4512    1.9391   -0.1449 C   0  0  0  0  0  0  0  0  0  0  0  0
   -1.5870    2.3128    0.6980 N   0  0  0  0  0  0  0  0  0  0  0  0
    0.4148    2.8400   -0.4419 N   0  0  0  0  0  0  0  0  0  0  0  0
  1  2  1  0
  2  3  2  0
  3  4  1  0
  4  5  1  1
  5  6  2  0
  6  7  1  0
  7  8  2  0
  8  9  1  0
  9 10  2  0
  4 11  1  0
 11 12  1  0
 12 13  2  0
 13 14  1  0
 14 15  2  0
 15 16  1  0
 16 17  1  0
 16 18  2  0
 11 19  1  0
 19 20  1  0
 19 21  2  0
 21  2  1  0
 10  5  1  0
 18 12  1  0
M  END
>  <zinc_id>  (101) 
ZINC000001749924

>  <ortholog_name>  (101) 
DRTS_PLAFK

>  <gene_name>  (101) 
DRTS_PLAFK

>  <affinity>  (101) 
7.98

>  <chembldocid>  (101) 
17662

>  <title>  (101) 
None

>  <reference.pubmed_id>  (101) 
14736247

>  <reference.doi>  (101) 
None

>  <reference.chembl_id>  (101) 
CHEMBL1138835

>  <reference.journal>  (101) 
J. Med. Chem.

>  <reference.year>  (101) 
2004

$$$$

     RDKit          3D

 21 23  0  0  0  0  0  0  0  0999 V2000
    2.4750    3.4377   -1.5993 N   0  0  0  0  0  0  0  0  0  0  0  0
    1.4938    2.4373   -1.2566 C   0  0  0  0  0  0  0  0  0  0  0  0
    1.6848    1.3057   -1.7098 N   0  0  0  0  0  0  0  0  0  0  0  0
    0.7584    0.0961   -1.4636 C   0  0  1  0  0  0  0  0  0  0  0  0
    1.6563   -0.6105   -0.3259 C   0  0  0  0  0  0  0  0  0  0  0  0
    1.8291   -1.9538   -0.4474 C   0  0  0  0  0  0  0  0  0  0  0  0
    2.5928   -2.6639    0.4894 C   0  0  0  0  0  0  0  0  0  0  0  0
    3.1441   -1.9292    1.5175 C   0  0  0  0  0  0  0  0  0  0  0  0
    2.9568   -0.5695    1.6220 C   0  0  0  0  0  0  0  0  0  0  0  0
    2.1887    0.0925    0.6649 C   0  0  0  0  0  0  0  0  0  0  0  0
   -0.3606    0.6418   -0.5816 N   0  0  0  0  0  0  0  0  0  0  0  0
   -1.3411   -0.3130   -0.2265 C   0  0  0  0  0  0  0  0  0  0  0  0
   -1.3028   -1.6254   -0.6338 C   0  0  0  0  0  0  0  0  0  0  0  0
   -2.3110   -2.5105   -0.2406 C   0  0  0  0  0  0  0  0  0  0  0  0
   -3.3592   -2.0898    0.5590 C   0  0  0  0  0  0  0  0  0  0  0  0
   -3.4045   -0.7739    0.9718 C   0  0  0  0  0  0  0  0  0  0  0  0
   -4.6869   -0.1407    1.9846 Cl  0  0  0  0  0  0  0  0  0  0  0  0
   -2.3904    0.0771    0.5648 C   0  0  0  0  0  0  0  0  0  0  0  0
   -0.4512    1.9391   -0.1449 C   0  0  0  0  0  0  0  0  0  0  0  0
   -1.5870    2.3128    0.6980 N   0  0  0  0  0  0  0  0  0  0  0  0
    0.4148    2.8400   -0.4419 N   0  0  0  0  0  0  0  0  0  0  0  0
  1  2  1  0
  2  3  2  0
  3  4  1  0
  4  5  1  1
  5  6  2  0
  6  7  1  0
  7  8  2  0
  8  9  1  0
  9 10  2  0
  4 11  1  0
 11 12  1  0
 12 13  2  0
 13 14  1  0
 14 15  2  0
 15 16  1  0
 16 17  1  0
 16 18  2  0
 11 19  1  0
 19 20  1  0
 19 21  2  0
 21  2  1  0
 10  5  1  0
 18 12  1  0
M  END
>  <zinc_id>  (102) 
ZINC000001749924

>  <ortholog_name>  (102) 
DRTS_PLAFK

>  <gene_name>  (102) 
DRTS_PLAFK

>  <affinity>  (102) 
7.93

>  <chembldocid>  (102) 
15522

>  <title>  (102) 
None

>  <reference.pubmed_id>  (102) 
10893311

>  <reference.doi>  (102) 
None

>  <reference.chembl_id>  (102) 
CHEMBL1133696

>  <reference.journal>  (102) 
J. Med. Chem.

>  <reference.year>  (102) 
2000

$$$$

     RDKit          3D

 21 23  0  0  0  0  0  0  0  0999 V2000
    2.4750    3.4377   -1.5993 N   0  0  0  0  0  0  0  0  0  0  0  0
    1.4938    2.4373   -1.2566 C   0  0  0  0  0  0  0  0  0  0  0  0
    1.6848    1.3057   -1.7098 N   0  0  0  0  0  0  0  0  0  0  0  0
    0.7584    0.0961   -1.4636 C   0  0  1  0  0  0  0  0  0  0  0  0
    1.6563   -0.6105   -0.3259 C   0  0  0  0  0  0  0  0  0  0  0  0
    1.8291   -1.9538   -0.4474 C   0  0  0  0  0  0  0  0  0  0  0  0
    2.5928   -2.6639    0.4894 C   0  0  0  0  0  0  0  0  0  0  0  0
    3.1441   -1.9292    1.5175 C   0  0  0  0  0  0  0  0  0  0  0  0
    2.9568   -0.5695    1.6220 C   0  0  0  0  0  0  0  0  0  0  0  0
    2.1887    0.0925    0.6649 C   0  0  0  0  0  0  0  0  0  0  0  0
   -0.3606    0.6418   -0.5816 N   0  0  0  0  0  0  0  0  0  0  0  0
   -1.3411   -0.3130   -0.2265 C   0  0  0  0  0  0  0  0  0  0  0  0
   -1.3028   -1.6254   -0.6338 C   0  0  0  0  0  0  0  0  0  0  0  0
   -2.3110   -2.5105   -0.2406 C   0  0  0  0  0  0  0  0  0  0  0  0
   -3.3592   -2.0898    0.5590 C   0  0  0  0  0  0  0  0  0  0  0  0
   -3.4045   -0.7739    0.9718 C   0  0  0  0  0  0  0  0  0  0  0  0
   -4.6869   -0.1407    1.9846 Cl  0  0  0  0  0  0  0  0  0  0  0  0
   -2.3904    0.0771    0.5648 C   0  0  0  0  0  0  0  0  0  0  0  0
   -0.4512    1.9391   -0.1449 C   0  0  0  0  0  0  0  0  0  0  0  0
   -1.5870    2.3128    0.6980 N   0  0  0  0  0  0  0  0  0  0  0  0
    0.4148    2.8400   -0.4419 N   0  0  0  0  0  0  0  0  0  0  0  0
  1  2  1  0
  2  3  2  0
  3  4  1  0
  4  5  1  1
  5  6  2  0
  6  7  1  0
  7  8  2  0
  8  9  1  0
  9 10  2  0
  4 11  1  0
 11 12  1  0
 12 13  2  0
 13 14  1  0
 14 15  2  0
 15 16  1  0
 16 17  1  0
 16 18  2  0
 11 19  1  0
 19 20  1  0
 19 21  2  0
 21  2  1  0
 10  5  1  0
 18 12  1  0
M  END
>  <zinc_id>  (103) 
ZINC000001749924

>  <ortholog_name>  (103) 
DRTS_PLAFK

>  <gene_name>  (103) 
DRTS_PLAFK

>  <affinity>  (103) 
7.93

>  <chembldocid>  (103) 
17662

>  <title>  (103) 
None

>  <reference.pubmed_id>  (103) 
14736247

>  <reference.doi>  (103) 
None

>  <reference.chembl_id>  (103) 
CHEMBL1138835

>  <reference.journal>  (103) 
J. Med. Chem.

>  <reference.year>  (103) 
2004

$$$$

     RDKit          3D

 21 23  0  0  0  0  0  0  0  0999 V2000
    2.4750    3.4377   -1.5993 N   0  0  0  0  0  0  0  0  0  0  0  0
    1.4938    2.4373   -1.2566 C   0  0  0  0  0  0  0  0  0  0  0  0
    1.6848    1.3057   -1.7098 N   0  0  0  0  0  0  0  0  0  0  0  0
    0.7584    0.0961   -1.4636 C   0  0  1  0  0  0  0  0  0  0  0  0
    1.6563   -0.6105   -0.3259 C   0  0  0  0  0  0  0  0  0  0  0  0
    1.8291   -1.9538   -0.4474 C   0  0  0  0  0  0  0  0  0  0  0  0
    2.5928   -2.6639    0.4894 C   0  0  0  0  0  0  0  0  0  0  0  0
    3.1441   -1.9292    1.5175 C   0  0  0  0  0  0  0  0  0  0  0  0
    2.9568   -0.5695    1.6220 C   0  0  0  0  0  0  0  0  0  0  0  0
    2.1887    0.0925    0.6649 C   0  0  0  0  0  0  0  0  0  0  0  0
   -0.3606    0.6418   -0.5816 N   0  0  0  0  0  0  0  0  0  0  0  0
   -1.3411   -0.3130   -0.2265 C   0  0  0  0  0  0  0  0  0  0  0  0
   -1.3028   -1.6254   -0.6338 C   0  0  0  0  0  0  0  0  0  0  0  0
   -2.3110   -2.5105   -0.2406 C   0  0  0  0  0  0  0  0  0  0  0  0
   -3.3592   -2.0898    0.5590 C   0  0  0  0  0  0  0  0  0  0  0  0
   -3.4045   -0.7739    0.9718 C   0  0  0  0  0  0  0  0  0  0  0  0
   -4.6869   -0.1407    1.9846 Cl  0  0  0  0  0  0  0  0  0  0  0  0
   -2.3904    0.0771    0.5648 C   0  0  0  0  0  0  0  0  0  0  0  0
   -0.4512    1.9391   -0.1449 C   0  0  0  0  0  0  0  0  0  0  0  0
   -1.5870    2.3128    0.6980 N   0  0  0  0  0  0  0  0  0  0  0  0
    0.4148    2.8400   -0.4419 N   0  0  0  0  0  0  0  0  0  0  0  0
  1  2  1  0
  2  3  2  0
  3  4  1  0
  4  5  1  1
  5  6  2  0
  6  7  1  0
  7  8  2  0
  8  9  1  0
  9 10  2  0
  4 11  1  0
 11 12  1  0
 12 13  2  0
 13 14  1  0
 14 15  2  0
 15 16  1  0
 16 17  1  0
 16 18  2  0
 11 19  1  0
 19 20  1  0
 19 21  2  0
 21  2  1  0
 10  5  1  0
 18 12  1  0
M  END
>  <zinc_id>  (104) 
ZINC000001749924

>  <ortholog_name>  (104) 
DRTS_PLAFK

>  <gene_name>  (104) 
DRTS_PLAFK

>  <affinity>  (104) 
6.95

>  <chembldocid>  (104) 
17662

>  <title>  (104) 
None

>  <reference.pubmed_id>  (104) 
14736247

>  <reference.doi>  (104) 
None

>  <reference.chembl_id>  (104) 
CHEMBL1138835

>  <reference.journal>  (104) 
J. Med. Chem.

>  <reference.year>  (104) 
2004

$$$$

     RDKit          3D

 21 23  0  0  0  0  0  0  0  0999 V2000
    2.4750    3.4377   -1.5993 N   0  0  0  0  0  0  0  0  0  0  0  0
    1.4938    2.4373   -1.2566 C   0  0  0  0  0  0  0  0  0  0  0  0
    1.6848    1.3057   -1.7098 N   0  0  0  0  0  0  0  0  0  0  0  0
    0.7584    0.0961   -1.4636 C   0  0  1  0  0  0  0  0  0  0  0  0
    1.6563   -0.6105   -0.3259 C   0  0  0  0  0  0  0  0  0  0  0  0
    1.8291   -1.9538   -0.4474 C   0  0  0  0  0  0  0  0  0  0  0  0
    2.5928   -2.6639    0.4894 C   0  0  0  0  0  0  0  0  0  0  0  0
    3.1441   -1.9292    1.5175 C   0  0  0  0  0  0  0  0  0  0  0  0
    2.9568   -0.5695    1.6220 C   0  0  0  0  0  0  0  0  0  0  0  0
    2.1887    0.0925    0.6649 C   0  0  0  0  0  0  0  0  0  0  0  0
   -0.3606    0.6418   -0.5816 N   0  0  0  0  0  0  0  0  0  0  0  0
   -1.3411   -0.3130   -0.2265 C   0  0  0  0  0  0  0  0  0  0  0  0
   -1.3028   -1.6254   -0.6338 C   0  0  0  0  0  0  0  0  0  0  0  0
   -2.3110   -2.5105   -0.2406 C   0  0  0  0  0  0  0  0  0  0  0  0
   -3.3592   -2.0898    0.5590 C   0  0  0  0  0  0  0  0  0  0  0  0
   -3.4045   -0.7739    0.9718 C   0  0  0  0  0  0  0  0  0  0  0  0
   -4.6869   -0.1407    1.9846 Cl  0  0  0  0  0  0  0  0  0  0  0  0
   -2.3904    0.0771    0.5648 C   0  0  0  0  0  0  0  0  0  0  0  0
   -0.4512    1.9391   -0.1449 C   0  0  0  0  0  0  0  0  0  0  0  0
   -1.5870    2.3128    0.6980 N   0  0  0  0  0  0  0  0  0  0  0  0
    0.4148    2.8400   -0.4419 N   0  0  0  0  0  0  0  0  0  0  0  0
  1  2  1  0
  2  3  2  0
  3  4  1  0
  4  5  1  1
  5  6  2  0
  6  7  1  0
  7  8  2  0
  8  9  1  0
  9 10  2  0
  4 11  1  0
 11 12  1  0
 12 13  2  0
 13 14  1  0
 14 15  2  0
 15 16  1  0
 16 17  1  0
 16 18  2  0
 11 19  1  0
 19 20  1  0
 19 21  2  0
 21  2  1  0
 10  5  1  0
 18 12  1  0
M  END
>  <zinc_id>  (105) 
ZINC000001749924

>  <ortholog_name>  (105) 
DRTS_PLAFK

>  <gene_name>  (105) 
DRTS_PLAFK

>  <affinity>  (105) 
7.70

>  <chembldocid>  (105) 
17662

>  <title>  (105) 
None

>  <reference.pubmed_id>  (105) 
14736247

>  <reference.doi>  (105) 
None

>  <reference.chembl_id>  (105) 
CHEMBL1138835

>  <reference.journal>  (105) 
J. Med. Chem.

>  <reference.year>  (105) 
2004

$$$$

     RDKit          3D

 21 23  0  0  0  0  0  0  0  0999 V2000
    2.4750    3.4377   -1.5993 N   0  0  0  0  0  0  0  0  0  0  0  0
    1.4938    2.4373   -1.2566 C   0  0  0  0  0  0  0  0  0  0  0  0
    1.6848    1.3057   -1.7098 N   0  0  0  0  0  0  0  0  0  0  0  0
    0.7584    0.0961   -1.4636 C   0  0  1  0  0  0  0  0  0  0  0  0
    1.6563   -0.6105   -0.3259 C   0  0  0  0  0  0  0  0  0  0  0  0
    1.8291   -1.9538   -0.4474 C   0  0  0  0  0  0  0  0  0  0  0  0
    2.5928   -2.6639    0.4894 C   0  0  0  0  0  0  0  0  0  0  0  0
    3.1441   -1.9292    1.5175 C   0  0  0  0  0  0  0  0  0  0  0  0
    2.9568   -0.5695    1.6220 C   0  0  0  0  0  0  0  0  0  0  0  0
    2.1887    0.0925    0.6649 C   0  0  0  0  0  0  0  0  0  0  0  0
   -0.3606    0.6418   -0.5816 N   0  0  0  0  0  0  0  0  0  0  0  0
   -1.3411   -0.3130   -0.2265 C   0  0  0  0  0  0  0  0  0  0  0  0
   -1.3028   -1.6254   -0.6338 C   0  0  0  0  0  0  0  0  0  0  0  0
   -2.3110   -2.5105   -0.2406 C   0  0  0  0  0  0  0  0  0  0  0  0
   -3.3592   -2.0898    0.5590 C   0  0  0  0  0  0  0  0  0  0  0  0
   -3.4045   -0.7739    0.9718 C   0  0  0  0  0  0  0  0  0  0  0  0
   -4.6869   -0.1407    1.9846 Cl  0  0  0  0  0  0  0  0  0  0  0  0
   -2.3904    0.0771    0.5648 C   0  0  0  0  0  0  0  0  0  0  0  0
   -0.4512    1.9391   -0.1449 C   0  0  0  0  0  0  0  0  0  0  0  0
   -1.5870    2.3128    0.6980 N   0  0  0  0  0  0  0  0  0  0  0  0
    0.4148    2.8400   -0.4419 N   0  0  0  0  0  0  0  0  0  0  0  0
  1  2  1  0
  2  3  2  0
  3  4  1  0
  4  5  1  1
  5  6  2  0
  6  7  1  0
  7  8  2  0
  8  9  1  0
  9 10  2  0
  4 11  1  0
 11 12  1  0
 12 13  2  0
 13 14  1  0
 14 15  2  0
 15 16  1  0
 16 17  1  0
 16 18  2  0
 11 19  1  0
 19 20  1  0
 19 21  2  0
 21  2  1  0
 10  5  1  0
 18 12  1  0
M  END
>  <zinc_id>  (106) 
ZINC000001749924

>  <ortholog_name>  (106) 
DRTS_PLAFK

>  <gene_name>  (106) 
DRTS_PLAFK

>  <affinity>  (106) 
6.70

>  <chembldocid>  (106) 
17662

>  <title>  (106) 
None

>  <reference.pubmed_id>  (106) 
14736247

>  <reference.doi>  (106) 
None

>  <reference.chembl_id>  (106) 
CHEMBL1138835

>  <reference.journal>  (106) 
J. Med. Chem.

>  <reference.year>  (106) 
2004

$$$$

     RDKit          3D

 21 23  0  0  0  0  0  0  0  0999 V2000
    2.4750    3.4377   -1.5993 N   0  0  0  0  0  0  0  0  0  0  0  0
    1.4938    2.4373   -1.2566 C   0  0  0  0  0  0  0  0  0  0  0  0
    1.6848    1.3057   -1.7098 N   0  0  0  0  0  0  0  0  0  0  0  0
    0.7584    0.0961   -1.4636 C   0  0  1  0  0  0  0  0  0  0  0  0
    1.6563   -0.6105   -0.3259 C   0  0  0  0  0  0  0  0  0  0  0  0
    1.8291   -1.9538   -0.4474 C   0  0  0  0  0  0  0  0  0  0  0  0
    2.5928   -2.6639    0.4894 C   0  0  0  0  0  0  0  0  0  0  0  0
    3.1441   -1.9292    1.5175 C   0  0  0  0  0  0  0  0  0  0  0  0
    2.9568   -0.5695    1.6220 C   0  0  0  0  0  0  0  0  0  0  0  0
    2.1887    0.0925    0.6649 C   0  0  0  0  0  0  0  0  0  0  0  0
   -0.3606    0.6418   -0.5816 N   0  0  0  0  0  0  0  0  0  0  0  0
   -1.3411   -0.3130   -0.2265 C   0  0  0  0  0  0  0  0  0  0  0  0
   -1.3028   -1.6254   -0.6338 C   0  0  0  0  0  0  0  0  0  0  0  0
   -2.3110   -2.5105   -0.2406 C   0  0  0  0  0  0  0  0  0  0  0  0
   -3.3592   -2.0898    0.5590 C   0  0  0  0  0  0  0  0  0  0  0  0
   -3.4045   -0.7739    0.9718 C   0  0  0  0  0  0  0  0  0  0  0  0
   -4.6869   -0.1407    1.9846 Cl  0  0  0  0  0  0  0  0  0  0  0  0
   -2.3904    0.0771    0.5648 C   0  0  0  0  0  0  0  0  0  0  0  0
   -0.4512    1.9391   -0.1449 C   0  0  0  0  0  0  0  0  0  0  0  0
   -1.5870    2.3128    0.6980 N   0  0  0  0  0  0  0  0  0  0  0  0
    0.4148    2.8400   -0.4419 N   0  0  0  0  0  0  0  0  0  0  0  0
  1  2  1  0
  2  3  2  0
  3  4  1  0
  4  5  1  1
  5  6  2  0
  6  7  1  0
  7  8  2  0
  8  9  1  0
  9 10  2  0
  4 11  1  0
 11 12  1  0
 12 13  2  0
 13 14  1  0
 14 15  2  0
 15 16  1  0
 16 17  1  0
 16 18  2  0
 11 19  1  0
 19 20  1  0
 19 21  2  0
 21  2  1  0
 10  5  1  0
 18 12  1  0
M  END
>  <zinc_id>  (107) 
ZINC000001749924

>  <ortholog_name>  (107) 
DRTS_PLAFK

>  <gene_name>  (107) 
DRTS_PLAFK

>  <affinity>  (107) 
6.66

>  <chembldocid>  (107) 
17662

>  <title>  (107) 
None

>  <reference.pubmed_id>  (107) 
14736247

>  <reference.doi>  (107) 
None

>  <reference.chembl_id>  (107) 
CHEMBL1138835

>  <reference.journal>  (107) 
J. Med. Chem.

>  <reference.year>  (107) 
2004

$$$$

     RDKit          3D

 21 23  0  0  0  0  0  0  0  0999 V2000
    2.4750    3.4377   -1.5993 N   0  0  0  0  0  0  0  0  0  0  0  0
    1.4938    2.4373   -1.2566 C   0  0  0  0  0  0  0  0  0  0  0  0
    1.6848    1.3057   -1.7098 N   0  0  0  0  0  0  0  0  0  0  0  0
    0.7584    0.0961   -1.4636 C   0  0  1  0  0  0  0  0  0  0  0  0
    1.6563   -0.6105   -0.3259 C   0  0  0  0  0  0  0  0  0  0  0  0
    1.8291   -1.9538   -0.4474 C   0  0  0  0  0  0  0  0  0  0  0  0
    2.5928   -2.6639    0.4894 C   0  0  0  0  0  0  0  0  0  0  0  0
    3.1441   -1.9292    1.5175 C   0  0  0  0  0  0  0  0  0  0  0  0
    2.9568   -0.5695    1.6220 C   0  0  0  0  0  0  0  0  0  0  0  0
    2.1887    0.0925    0.6649 C   0  0  0  0  0  0  0  0  0  0  0  0
   -0.3606    0.6418   -0.5816 N   0  0  0  0  0  0  0  0  0  0  0  0
   -1.3411   -0.3130   -0.2265 C   0  0  0  0  0  0  0  0  0  0  0  0
   -1.3028   -1.6254   -0.6338 C   0  0  0  0  0  0  0  0  0  0  0  0
   -2.3110   -2.5105   -0.2406 C   0  0  0  0  0  0  0  0  0  0  0  0
   -3.3592   -2.0898    0.5590 C   0  0  0  0  0  0  0  0  0  0  0  0
   -3.4045   -0.7739    0.9718 C   0  0  0  0  0  0  0  0  0  0  0  0
   -4.6869   -0.1407    1.9846 Cl  0  0  0  0  0  0  0  0  0  0  0  0
   -2.3904    0.0771    0.5648 C   0  0  0  0  0  0  0  0  0  0  0  0
   -0.4512    1.9391   -0.1449 C   0  0  0  0  0  0  0  0  0  0  0  0
   -1.5870    2.3128    0.6980 N   0  0  0  0  0  0  0  0  0  0  0  0
    0.4148    2.8400   -0.4419 N   0  0  0  0  0  0  0  0  0  0  0  0
  1  2  1  0
  2  3  2  0
  3  4  1  0
  4  5  1  1
  5  6  2  0
  6  7  1  0
  7  8  2  0
  8  9  1  0
  9 10  2  0
  4 11  1  0
 11 12  1  0
 12 13  2  0
 13 14  1  0
 14 15  2  0
 15 16  1  0
 16 17  1  0
 16 18  2  0
 11 19  1  0
 19 20  1  0
 19 21  2  0
 21  2  1  0
 10  5  1  0
 18 12  1  0
M  END
>  <zinc_id>  (108) 
ZINC000001749924

>  <ortholog_name>  (108) 
DRTS_PLAFK

>  <gene_name>  (108) 
DRTS_PLAFK

>  <affinity>  (108) 
6.60

>  <chembldocid>  (108) 
17662

>  <title>  (108) 
None

>  <reference.pubmed_id>  (108) 
14736247

>  <reference.doi>  (108) 
None

>  <reference.chembl_id>  (108) 
CHEMBL1138835

>  <reference.journal>  (108) 
J. Med. Chem.

>  <reference.year>  (108) 
2004

$$$$

     RDKit          3D

 21 23  0  0  0  0  0  0  0  0999 V2000
    2.4750    3.4377   -1.5993 N   0  0  0  0  0  0  0  0  0  0  0  0
    1.4938    2.4373   -1.2566 C   0  0  0  0  0  0  0  0  0  0  0  0
    1.6848    1.3057   -1.7098 N   0  0  0  0  0  0  0  0  0  0  0  0
    0.7584    0.0961   -1.4636 C   0  0  1  0  0  0  0  0  0  0  0  0
    1.6563   -0.6105   -0.3259 C   0  0  0  0  0  0  0  0  0  0  0  0
    1.8291   -1.9538   -0.4474 C   0  0  0  0  0  0  0  0  0  0  0  0
    2.5928   -2.6639    0.4894 C   0  0  0  0  0  0  0  0  0  0  0  0
    3.1441   -1.9292    1.5175 C   0  0  0  0  0  0  0  0  0  0  0  0
    2.9568   -0.5695    1.6220 C   0  0  0  0  0  0  0  0  0  0  0  0
    2.1887    0.0925    0.6649 C   0  0  0  0  0  0  0  0  0  0  0  0
   -0.3606    0.6418   -0.5816 N   0  0  0  0  0  0  0  0  0  0  0  0
   -1.3411   -0.3130   -0.2265 C   0  0  0  0  0  0  0  0  0  0  0  0
   -1.3028   -1.6254   -0.6338 C   0  0  0  0  0  0  0  0  0  0  0  0
   -2.3110   -2.5105   -0.2406 C   0  0  0  0  0  0  0  0  0  0  0  0
   -3.3592   -2.0898    0.5590 C   0  0  0  0  0  0  0  0  0  0  0  0
   -3.4045   -0.7739    0.9718 C   0  0  0  0  0  0  0  0  0  0  0  0
   -4.6869   -0.1407    1.9846 Cl  0  0  0  0  0  0  0  0  0  0  0  0
   -2.3904    0.0771    0.5648 C   0  0  0  0  0  0  0  0  0  0  0  0
   -0.4512    1.9391   -0.1449 C   0  0  0  0  0  0  0  0  0  0  0  0
   -1.5870    2.3128    0.6980 N   0  0  0  0  0  0  0  0  0  0  0  0
    0.4148    2.8400   -0.4419 N   0  0  0  0  0  0  0  0  0  0  0  0
  1  2  1  0
  2  3  2  0
  3  4  1  0
  4  5  1  1
  5  6  2  0
  6  7  1  0
  7  8  2  0
  8  9  1  0
  9 10  2  0
  4 11  1  0
 11 12  1  0
 12 13  2  0
 13 14  1  0
 14 15  2  0
 15 16  1  0
 16 17  1  0
 16 18  2  0
 11 19  1  0
 19 20  1  0
 19 21  2  0
 21  2  1  0
 10  5  1  0
 18 12  1  0
M  END
>  <zinc_id>  (109) 
ZINC000001749924

>  <ortholog_name>  (109) 
DRTS_PLAFK

>  <gene_name>  (109) 
DRTS_PLAFK

>  <affinity>  (109) 
6.51

>  <chembldocid>  (109) 
17662

>  <title>  (109) 
None

>  <reference.pubmed_id>  (109) 
14736247

>  <reference.doi>  (109) 
None

>  <reference.chembl_id>  (109) 
CHEMBL1138835

>  <reference.journal>  (109) 
J. Med. Chem.

>  <reference.year>  (109) 
2004

$$$$

     RDKit          3D

 21 23  0  0  0  0  0  0  0  0999 V2000
    2.4750    3.4377   -1.5993 N   0  0  0  0  0  0  0  0  0  0  0  0
    1.4938    2.4373   -1.2566 C   0  0  0  0  0  0  0  0  0  0  0  0
    1.6848    1.3057   -1.7098 N   0  0  0  0  0  0  0  0  0  0  0  0
    0.7584    0.0961   -1.4636 C   0  0  1  0  0  0  0  0  0  0  0  0
    1.6563   -0.6105   -0.3259 C   0  0  0  0  0  0  0  0  0  0  0  0
    1.8291   -1.9538   -0.4474 C   0  0  0  0  0  0  0  0  0  0  0  0
    2.5928   -2.6639    0.4894 C   0  0  0  0  0  0  0  0  0  0  0  0
    3.1441   -1.9292    1.5175 C   0  0  0  0  0  0  0  0  0  0  0  0
    2.9568   -0.5695    1.6220 C   0  0  0  0  0  0  0  0  0  0  0  0
    2.1887    0.0925    0.6649 C   0  0  0  0  0  0  0  0  0  0  0  0
   -0.3606    0.6418   -0.5816 N   0  0  0  0  0  0  0  0  0  0  0  0
   -1.3411   -0.3130   -0.2265 C   0  0  0  0  0  0  0  0  0  0  0  0
   -1.3028   -1.6254   -0.6338 C   0  0  0  0  0  0  0  0  0  0  0  0
   -2.3110   -2.5105   -0.2406 C   0  0  0  0  0  0  0  0  0  0  0  0
   -3.3592   -2.0898    0.5590 C   0  0  0  0  0  0  0  0  0  0  0  0
   -3.4045   -0.7739    0.9718 C   0  0  0  0  0  0  0  0  0  0  0  0
   -4.6869   -0.1407    1.9846 Cl  0  0  0  0  0  0  0  0  0  0  0  0
   -2.3904    0.0771    0.5648 C   0  0  0  0  0  0  0  0  0  0  0  0
   -0.4512    1.9391   -0.1449 C   0  0  0  0  0  0  0  0  0  0  0  0
   -1.5870    2.3128    0.6980 N   0  0  0  0  0  0  0  0  0  0  0  0
    0.4148    2.8400   -0.4419 N   0  0  0  0  0  0  0  0  0  0  0  0
  1  2  1  0
  2  3  2  0
  3  4  1  0
  4  5  1  1
  5  6  2  0
  6  7  1  0
  7  8  2  0
  8  9  1  0
  9 10  2  0
  4 11  1  0
 11 12  1  0
 12 13  2  0
 13 14  1  0
 14 15  2  0
 15 16  1  0
 16 17  1  0
 16 18  2  0
 11 19  1  0
 19 20  1  0
 19 21  2  0
 21  2  1  0
 10  5  1  0
 18 12  1  0
M  END
>  <zinc_id>  (110) 
ZINC000001749924

>  <ortholog_name>  (110) 
DRTS_PLAFK

>  <gene_name>  (110) 
DRTS_PLAFK

>  <affinity>  (110) 
6.25

>  <chembldocid>  (110) 
17662

>  <title>  (110) 
None

>  <reference.pubmed_id>  (110) 
14736247

>  <reference.doi>  (110) 
None

>  <reference.chembl_id>  (110) 
CHEMBL1138835

>  <reference.journal>  (110) 
J. Med. Chem.

>  <reference.year>  (110) 
2004

$$$$

     RDKit          3D

 21 23  0  0  0  0  0  0  0  0999 V2000
    2.4750    3.4377   -1.5993 N   0  0  0  0  0  0  0  0  0  0  0  0
    1.4938    2.4373   -1.2566 C   0  0  0  0  0  0  0  0  0  0  0  0
    1.6848    1.3057   -1.7098 N   0  0  0  0  0  0  0  0  0  0  0  0
    0.7584    0.0961   -1.4636 C   0  0  1  0  0  0  0  0  0  0  0  0
    1.6563   -0.6105   -0.3259 C   0  0  0  0  0  0  0  0  0  0  0  0
    1.8291   -1.9538   -0.4474 C   0  0  0  0  0  0  0  0  0  0  0  0
    2.5928   -2.6639    0.4894 C   0  0  0  0  0  0  0  0  0  0  0  0
    3.1441   -1.9292    1.5175 C   0  0  0  0  0  0  0  0  0  0  0  0
    2.9568   -0.5695    1.6220 C   0  0  0  0  0  0  0  0  0  0  0  0
    2.1887    0.0925    0.6649 C   0  0  0  0  0  0  0  0  0  0  0  0
   -0.3606    0.6418   -0.5816 N   0  0  0  0  0  0  0  0  0  0  0  0
   -1.3411   -0.3130   -0.2265 C   0  0  0  0  0  0  0  0  0  0  0  0
   -1.3028   -1.6254   -0.6338 C   0  0  0  0  0  0  0  0  0  0  0  0
   -2.3110   -2.5105   -0.2406 C   0  0  0  0  0  0  0  0  0  0  0  0
   -3.3592   -2.0898    0.5590 C   0  0  0  0  0  0  0  0  0  0  0  0
   -3.4045   -0.7739    0.9718 C   0  0  0  0  0  0  0  0  0  0  0  0
   -4.6869   -0.1407    1.9846 Cl  0  0  0  0  0  0  0  0  0  0  0  0
   -2.3904    0.0771    0.5648 C   0  0  0  0  0  0  0  0  0  0  0  0
   -0.4512    1.9391   -0.1449 C   0  0  0  0  0  0  0  0  0  0  0  0
   -1.5870    2.3128    0.6980 N   0  0  0  0  0  0  0  0  0  0  0  0
    0.4148    2.8400   -0.4419 N   0  0  0  0  0  0  0  0  0  0  0  0
  1  2  1  0
  2  3  2  0
  3  4  1  0
  4  5  1  1
  5  6  2  0
  6  7  1  0
  7  8  2  0
  8  9  1  0
  9 10  2  0
  4 11  1  0
 11 12  1  0
 12 13  2  0
 13 14  1  0
 14 15  2  0
 15 16  1  0
 16 17  1  0
 16 18  2  0
 11 19  1  0
 19 20  1  0
 19 21  2  0
 21  2  1  0
 10  5  1  0
 18 12  1  0
M  END
>  <zinc_id>  (111) 
ZINC000001749924

>  <ortholog_name>  (111) 
DRTS_PLAFK

>  <gene_name>  (111) 
DRTS_PLAFK

>  <affinity>  (111) 
6.10

>  <chembldocid>  (111) 
17662

>  <title>  (111) 
None

>  <reference.pubmed_id>  (111) 
14736247

>  <reference.doi>  (111) 
None

>  <reference.chembl_id>  (111) 
CHEMBL1138835

>  <reference.journal>  (111) 
J. Med. Chem.

>  <reference.year>  (111) 
2004

$$$$

     RDKit          3D

 21 23  0  0  0  0  0  0  0  0999 V2000
    2.4750    3.4377   -1.5993 N   0  0  0  0  0  0  0  0  0  0  0  0
    1.4938    2.4373   -1.2566 C   0  0  0  0  0  0  0  0  0  0  0  0
    1.6848    1.3057   -1.7098 N   0  0  0  0  0  0  0  0  0  0  0  0
    0.7584    0.0961   -1.4636 C   0  0  1  0  0  0  0  0  0  0  0  0
    1.6563   -0.6105   -0.3259 C   0  0  0  0  0  0  0  0  0  0  0  0
    1.8291   -1.9538   -0.4474 C   0  0  0  0  0  0  0  0  0  0  0  0
    2.5928   -2.6639    0.4894 C   0  0  0  0  0  0  0  0  0  0  0  0
    3.1441   -1.9292    1.5175 C   0  0  0  0  0  0  0  0  0  0  0  0
    2.9568   -0.5695    1.6220 C   0  0  0  0  0  0  0  0  0  0  0  0
    2.1887    0.0925    0.6649 C   0  0  0  0  0  0  0  0  0  0  0  0
   -0.3606    0.6418   -0.5816 N   0  0  0  0  0  0  0  0  0  0  0  0
   -1.3411   -0.3130   -0.2265 C   0  0  0  0  0  0  0  0  0  0  0  0
   -1.3028   -1.6254   -0.6338 C   0  0  0  0  0  0  0  0  0  0  0  0
   -2.3110   -2.5105   -0.2406 C   0  0  0  0  0  0  0  0  0  0  0  0
   -3.3592   -2.0898    0.5590 C   0  0  0  0  0  0  0  0  0  0  0  0
   -3.4045   -0.7739    0.9718 C   0  0  0  0  0  0  0  0  0  0  0  0
   -4.6869   -0.1407    1.9846 Cl  0  0  0  0  0  0  0  0  0  0  0  0
   -2.3904    0.0771    0.5648 C   0  0  0  0  0  0  0  0  0  0  0  0
   -0.4512    1.9391   -0.1449 C   0  0  0  0  0  0  0  0  0  0  0  0
   -1.5870    2.3128    0.6980 N   0  0  0  0  0  0  0  0  0  0  0  0
    0.4148    2.8400   -0.4419 N   0  0  0  0  0  0  0  0  0  0  0  0
  1  2  1  0
  2  3  2  0
  3  4  1  0
  4  5  1  1
  5  6  2  0
  6  7  1  0
  7  8  2  0
  8  9  1  0
  9 10  2  0
  4 11  1  0
 11 12  1  0
 12 13  2  0
 13 14  1  0
 14 15  2  0
 15 16  1  0
 16 17  1  0
 16 18  2  0
 11 19  1  0
 19 20  1  0
 19 21  2  0
 21  2  1  0
 10  5  1  0
 18 12  1  0
M  END
>  <zinc_id>  (112) 
ZINC000001749924

>  <ortholog_name>  (112) 
DRTS_PLAFK

>  <gene_name>  (112) 
DRTS_PLAFK

>  <affinity>  (112) 
6.01

>  <chembldocid>  (112) 
17662

>  <title>  (112) 
None

>  <reference.pubmed_id>  (112) 
14736247

>  <reference.doi>  (112) 
None

>  <reference.chembl_id>  (112) 
CHEMBL1138835

>  <reference.journal>  (112) 
J. Med. Chem.

>  <reference.year>  (112) 
2004

$$$$

     RDKit          3D

 18 19  0  0  0  0  0  0  0  0999 V2000
   -0.7945   -2.4101   -0.5116 C   0  0  0  0  0  0  0  0  0  0  0  0
   -1.8687   -1.4068   -0.3933 C   0  0  0  0  0  0  0  0  0  0  0  0
   -3.1543   -1.7547   -1.0510 C   0  0  0  0  0  0  0  0  0  0  0  0
   -1.2789   -0.0884   -1.1658 C   0  0  1  0  0  0  0  0  0  0  0  0
   -2.5059    0.7814   -0.9537 N   0  0  0  0  0  0  0  0  0  0  0  0
   -2.8069    1.5431   -0.0637 C   0  0  0  0  0  0  0  0  0  0  0  0
   -4.0807    2.2382   -0.1480 N   0  0  0  0  0  0  0  0  0  0  0  0
   -1.9245    1.8027    1.0136 N   0  0  0  0  0  0  0  0  0  0  0  0
   -0.8058    1.2211    1.0138 C   0  0  0  0  0  0  0  0  0  0  0  0
    0.1625    1.4203    2.0823 N   0  0  0  0  0  0  0  0  0  0  0  0
   -0.3929    0.4131   -0.0206 N   0  0  0  0  0  0  0  0  0  0  0  0
    0.9988   -0.0010   -0.1172 C   0  0  0  0  0  0  0  0  0  0  0  0
    1.4490   -1.1072    0.5491 C   0  0  0  0  0  0  0  0  0  0  0  0
    2.7815   -1.5228    0.4703 C   0  0  0  0  0  0  0  0  0  0  0  0
    3.6895   -0.8263   -0.2862 C   0  0  0  0  0  0  0  0  0  0  0  0
    5.3738   -1.2828   -0.4351 Cl  0  0  0  0  0  0  0  0  0  0  0  0
    3.2409    0.2878   -0.9587 C   0  0  0  0  0  0  0  0  0  0  0  0
    1.9173    0.6924   -0.8746 C   0  0  0  0  0  0  0  0  0  0  0  0
  1  2  1  0
  2  3  1  0
  4  2  1  1
  4  5  1  0
  5  6  2  0
  6  7  1  0
  6  8  1  0
  8  9  2  0
  9 10  1  0
  9 11  1  0
 11 12  1  0
 12 13  2  0
 13 14  1  0
 14 15  2  0
 15 16  1  0
 15 17  1  0
 17 18  2  0
 11  4  1  0
 18 12  1  0
M  END
>  <zinc_id>  (113) 
ZINC000002034275

>  <ortholog_name>  (113) 
DRTS_PLAFK

>  <gene_name>  (113) 
DRTS_PLAFK

>  <affinity>  (113) 
5.81

>  <chembldocid>  (113) 
15522

>  <title>  (113) 
None

>  <reference.pubmed_id>  (113) 
10893311

>  <reference.doi>  (113) 
None

>  <reference.chembl_id>  (113) 
CHEMBL1133696

>  <reference.journal>  (113) 
J. Med. Chem.

>  <reference.year>  (113) 
2000

$$$$

     RDKit          3D

 18 19  0  0  0  0  0  0  0  0999 V2000
   -0.7945   -2.4101   -0.5116 C   0  0  0  0  0  0  0  0  0  0  0  0
   -1.8687   -1.4068   -0.3933 C   0  0  0  0  0  0  0  0  0  0  0  0
   -3.1543   -1.7547   -1.0510 C   0  0  0  0  0  0  0  0  0  0  0  0
   -1.2789   -0.0884   -1.1658 C   0  0  1  0  0  0  0  0  0  0  0  0
   -2.5059    0.7814   -0.9537 N   0  0  0  0  0  0  0  0  0  0  0  0
   -2.8069    1.5431   -0.0637 C   0  0  0  0  0  0  0  0  0  0  0  0
   -4.0807    2.2382   -0.1480 N   0  0  0  0  0  0  0  0  0  0  0  0
   -1.9245    1.8027    1.0136 N   0  0  0  0  0  0  0  0  0  0  0  0
   -0.8058    1.2211    1.0138 C   0  0  0  0  0  0  0  0  0  0  0  0
    0.1625    1.4203    2.0823 N   0  0  0  0  0  0  0  0  0  0  0  0
   -0.3929    0.4131   -0.0206 N   0  0  0  0  0  0  0  0  0  0  0  0
    0.9988   -0.0010   -0.1172 C   0  0  0  0  0  0  0  0  0  0  0  0
    1.4490   -1.1072    0.5491 C   0  0  0  0  0  0  0  0  0  0  0  0
    2.7815   -1.5228    0.4703 C   0  0  0  0  0  0  0  0  0  0  0  0
    3.6895   -0.8263   -0.2862 C   0  0  0  0  0  0  0  0  0  0  0  0
    5.3738   -1.2828   -0.4351 Cl  0  0  0  0  0  0  0  0  0  0  0  0
    3.2409    0.2878   -0.9587 C   0  0  0  0  0  0  0  0  0  0  0  0
    1.9173    0.6924   -0.8746 C   0  0  0  0  0  0  0  0  0  0  0  0
  1  2  1  0
  2  3  1  0
  4  2  1  1
  4  5  1  0
  5  6  2  0
  6  7  1  0
  6  8  1  0
  8  9  2  0
  9 10  1  0
  9 11  1  0
 11 12  1  0
 12 13  2  0
 13 14  1  0
 14 15  2  0
 15 16  1  0
 15 17  1  0
 17 18  2  0
 11  4  1  0
 18 12  1  0
M  END
>  <zinc_id>  (114) 
ZINC000002034275

>  <ortholog_name>  (114) 
DRTS_PLAFK

>  <gene_name>  (114) 
DRTS_PLAFK

>  <affinity>  (114) 
7.22

>  <chembldocid>  (114) 
15522

>  <title>  (114) 
None

>  <reference.pubmed_id>  (114) 
10893311

>  <reference.doi>  (114) 
None

>  <reference.chembl_id>  (114) 
CHEMBL1133696

>  <reference.journal>  (114) 
J. Med. Chem.

>  <reference.year>  (114) 
2000

$$$$

     RDKit          3D

 18 19  0  0  0  0  0  0  0  0999 V2000
   -2.8471   -2.0983   -0.8583 C   0  0  0  0  0  0  0  0  0  0  0  0
   -1.5490   -1.2926   -0.8996 C   0  0  0  0  0  0  0  0  0  0  0  0
   -0.4963   -2.4106   -0.7291 C   0  0  0  0  0  0  0  0  0  0  0  0
   -1.4529   -0.6306    0.6334 C   0  0  2  0  0  0  0  0  0  0  0  0
   -2.7523    0.1299    0.5725 N   0  0  0  0  0  0  0  0  0  0  0  0
   -2.9841    1.2844    0.2651 C   0  0  0  0  0  0  0  0  0  0  0  0
   -4.2966    1.8251    0.2675 N   0  0  0  0  0  0  0  0  0  0  0  0
   -1.9279    2.1608   -0.0960 N   0  0  0  0  0  0  0  0  0  0  0  0
   -0.7468    1.7353   -0.0929 C   0  0  0  0  0  0  0  0  0  0  0  0
    0.3278    2.6202   -0.4609 N   0  0  0  0  0  0  0  0  0  0  0  0
   -0.4151    0.4353    0.2749 N   0  0  0  0  0  0  0  0  0  0  0  0
    0.9602    0.0181    0.3569 C   0  0  0  0  0  0  0  0  0  0  0  0
    1.5790   -0.4636   -0.7641 C   0  0  0  0  0  0  0  0  0  0  0  0
    2.9176   -0.8834   -0.7386 C   0  0  0  0  0  0  0  0  0  0  0  0
    3.6478   -0.8202    0.4260 C   0  0  0  0  0  0  0  0  0  0  0  0
    5.3163   -1.3524    0.4228 Cl  0  0  0  0  0  0  0  0  0  0  0  0
    3.0285   -0.3358    1.5571 C   0  0  0  0  0  0  0  0  0  0  0  0
    1.6909    0.0785    1.5113 C   0  0  0  0  0  0  0  0  0  0  0  0
  1  2  1  0
  2  3  1  0
  4  2  1  6
  4  5  1  0
  5  6  2  0
  6  7  1  0
  6  8  1  0
  8  9  2  0
  9 10  1  0
  9 11  1  0
 11 12  1  0
 12 13  2  0
 13 14  1  0
 14 15  2  0
 15 16  1  0
 15 17  1  0
 17 18  2  0
 11  4  1  0
 18 12  1  0
M  END
>  <zinc_id>  (115) 
ZINC000002034277

>  <ortholog_name>  (115) 
DRTS_PLAFK

>  <gene_name>  (115) 
DRTS_PLAFK

>  <affinity>  (115) 
5.81

>  <chembldocid>  (115) 
15522

>  <title>  (115) 
None

>  <reference.pubmed_id>  (115) 
10893311

>  <reference.doi>  (115) 
None

>  <reference.chembl_id>  (115) 
CHEMBL1133696

>  <reference.journal>  (115) 
J. Med. Chem.

>  <reference.year>  (115) 
2000

$$$$

     RDKit          3D

 18 19  0  0  0  0  0  0  0  0999 V2000
   -2.8471   -2.0983   -0.8583 C   0  0  0  0  0  0  0  0  0  0  0  0
   -1.5490   -1.2926   -0.8996 C   0  0  0  0  0  0  0  0  0  0  0  0
   -0.4963   -2.4106   -0.7291 C   0  0  0  0  0  0  0  0  0  0  0  0
   -1.4529   -0.6306    0.6334 C   0  0  2  0  0  0  0  0  0  0  0  0
   -2.7523    0.1299    0.5725 N   0  0  0  0  0  0  0  0  0  0  0  0
   -2.9841    1.2844    0.2651 C   0  0  0  0  0  0  0  0  0  0  0  0
   -4.2966    1.8251    0.2675 N   0  0  0  0  0  0  0  0  0  0  0  0
   -1.9279    2.1608   -0.0960 N   0  0  0  0  0  0  0  0  0  0  0  0
   -0.7468    1.7353   -0.0929 C   0  0  0  0  0  0  0  0  0  0  0  0
    0.3278    2.6202   -0.4609 N   0  0  0  0  0  0  0  0  0  0  0  0
   -0.4151    0.4353    0.2749 N   0  0  0  0  0  0  0  0  0  0  0  0
    0.9602    0.0181    0.3569 C   0  0  0  0  0  0  0  0  0  0  0  0
    1.5790   -0.4636   -0.7641 C   0  0  0  0  0  0  0  0  0  0  0  0
    2.9176   -0.8834   -0.7386 C   0  0  0  0  0  0  0  0  0  0  0  0
    3.6478   -0.8202    0.4260 C   0  0  0  0  0  0  0  0  0  0  0  0
    5.3163   -1.3524    0.4228 Cl  0  0  0  0  0  0  0  0  0  0  0  0
    3.0285   -0.3358    1.5571 C   0  0  0  0  0  0  0  0  0  0  0  0
    1.6909    0.0785    1.5113 C   0  0  0  0  0  0  0  0  0  0  0  0
  1  2  1  0
  2  3  1  0
  4  2  1  6
  4  5  1  0
  5  6  2  0
  6  7  1  0
  6  8  1  0
  8  9  2  0
  9 10  1  0
  9 11  1  0
 11 12  1  0
 12 13  2  0
 13 14  1  0
 14 15  2  0
 15 16  1  0
 15 17  1  0
 17 18  2  0
 11  4  1  0
 18 12  1  0
M  END
>  <zinc_id>  (116) 
ZINC000002034277

>  <ortholog_name>  (116) 
DRTS_PLAFK

>  <gene_name>  (116) 
DRTS_PLAFK

>  <affinity>  (116) 
7.22

>  <chembldocid>  (116) 
15522

>  <title>  (116) 
None

>  <reference.pubmed_id>  (116) 
10893311

>  <reference.doi>  (116) 
None

>  <reference.chembl_id>  (116) 
CHEMBL1133696

>  <reference.journal>  (116) 
J. Med. Chem.

>  <reference.year>  (116) 
2000

$$$$

     RDKit          3D

 16 17  0  0  0  0  0  0  0  0999 V2000
    1.0038    2.1386    0.6193 C   0  0  0  0  0  0  0  0  0  0  0  0
    1.1718    1.2442   -0.7655 C   0  0  1  0  0  0  0  0  0  0  0  0
    2.6834    1.0956   -0.6158 N   0  0  0  0  0  0  0  0  0  0  0  0
    3.2808    0.1605   -0.0963 C   0  0  0  0  0  0  0  0  0  0  0  0
    4.7224    0.2157   -0.0569 N   0  0  0  0  0  0  0  0  0  0  0  0
    2.6450   -0.9388    0.4511 N   0  0  0  0  0  0  0  0  0  0  0  0
    1.3807   -1.0137    0.4305 C   0  0  0  0  0  0  0  0  0  0  0  0
    0.7772   -2.1566    1.0022 N   0  0  0  0  0  0  0  0  0  0  0  0
    0.6441   -0.0397   -0.1160 N   0  0  0  0  0  0  0  0  0  0  0  0
   -0.7844   -0.0938   -0.1552 C   0  0  0  0  0  0  0  0  0  0  0  0
   -1.4855   -0.6578   -1.1956 C   0  0  0  0  0  0  0  0  0  0  0  0
   -2.8652   -0.6468   -1.1135 C   0  0  0  0  0  0  0  0  0  0  0  0
   -3.5527   -0.1096   -0.0625 C   0  0  0  0  0  0  0  0  0  0  0  0
   -5.3060   -0.0952    0.0426 Cl  0  0  0  0  0  0  0  0  0  0  0  0
   -2.8452    0.4521    0.9732 C   0  0  0  0  0  0  0  0  0  0  0  0
   -1.4702    0.4454    0.8994 C   0  0  0  0  0  0  0  0  0  0  0  0
  2  1  1  1
  2  3  1  0
  3  4  2  0
  4  5  1  0
  4  6  1  0
  6  7  2  0
  7  8  1  0
  7  9  1  0
  9 10  1  0
 10 11  2  0
 11 12  1  0
 12 13  2  0
 13 14  1  0
 13 15  1  0
 15 16  2  0
  9  2  1  0
 16 10  1  0
M  END
>  <zinc_id>  (117) 
ZINC000002034278

>  <ortholog_name>  (117) 
DRTS_PLAFK

>  <gene_name>  (117) 
DRTS_PLAFK

>  <affinity>  (117) 
6.90

>  <chembldocid>  (117) 
15522

>  <title>  (117) 
None

>  <reference.pubmed_id>  (117) 
10893311

>  <reference.doi>  (117) 
None

>  <reference.chembl_id>  (117) 
CHEMBL1133696

>  <reference.journal>  (117) 
J. Med. Chem.

>  <reference.year>  (117) 
2000

$$$$

     RDKit          3D

 16 17  0  0  0  0  0  0  0  0999 V2000
    1.0038    2.1386    0.6193 C   0  0  0  0  0  0  0  0  0  0  0  0
    1.1718    1.2442   -0.7655 C   0  0  1  0  0  0  0  0  0  0  0  0
    2.6834    1.0956   -0.6158 N   0  0  0  0  0  0  0  0  0  0  0  0
    3.2808    0.1605   -0.0963 C   0  0  0  0  0  0  0  0  0  0  0  0
    4.7224    0.2157   -0.0569 N   0  0  0  0  0  0  0  0  0  0  0  0
    2.6450   -0.9388    0.4511 N   0  0  0  0  0  0  0  0  0  0  0  0
    1.3807   -1.0137    0.4305 C   0  0  0  0  0  0  0  0  0  0  0  0
    0.7772   -2.1566    1.0022 N   0  0  0  0  0  0  0  0  0  0  0  0
    0.6441   -0.0397   -0.1160 N   0  0  0  0  0  0  0  0  0  0  0  0
   -0.7844   -0.0938   -0.1552 C   0  0  0  0  0  0  0  0  0  0  0  0
   -1.4855   -0.6578   -1.1956 C   0  0  0  0  0  0  0  0  0  0  0  0
   -2.8652   -0.6468   -1.1135 C   0  0  0  0  0  0  0  0  0  0  0  0
   -3.5527   -0.1096   -0.0625 C   0  0  0  0  0  0  0  0  0  0  0  0
   -5.3060   -0.0952    0.0426 Cl  0  0  0  0  0  0  0  0  0  0  0  0
   -2.8452    0.4521    0.9732 C   0  0  0  0  0  0  0  0  0  0  0  0
   -1.4702    0.4454    0.8994 C   0  0  0  0  0  0  0  0  0  0  0  0
  2  1  1  1
  2  3  1  0
  3  4  2  0
  4  5  1  0
  4  6  1  0
  6  7  2  0
  7  8  1  0
  7  9  1  0
  9 10  1  0
 10 11  2  0
 11 12  1  0
 12 13  2  0
 13 14  1  0
 13 15  1  0
 15 16  2  0
  9  2  1  0
 16 10  1  0
M  END
>  <zinc_id>  (118) 
ZINC000002034278

>  <ortholog_name>  (118) 
DRTS_PLAFK

>  <gene_name>  (118) 
DRTS_PLAFK

>  <affinity>  (118) 
6.90

>  <chembldocid>  (118) 
17662

>  <title>  (118) 
None

>  <reference.pubmed_id>  (118) 
14736247

>  <reference.doi>  (118) 
None

>  <reference.chembl_id>  (118) 
CHEMBL1138835

>  <reference.journal>  (118) 
J. Med. Chem.

>  <reference.year>  (118) 
2004

$$$$

     RDKit          3D

 16 17  0  0  0  0  0  0  0  0999 V2000
    1.0038    2.1386    0.6193 C   0  0  0  0  0  0  0  0  0  0  0  0
    1.1718    1.2442   -0.7655 C   0  0  1  0  0  0  0  0  0  0  0  0
    2.6834    1.0956   -0.6158 N   0  0  0  0  0  0  0  0  0  0  0  0
    3.2808    0.1605   -0.0963 C   0  0  0  0  0  0  0  0  0  0  0  0
    4.7224    0.2157   -0.0569 N   0  0  0  0  0  0  0  0  0  0  0  0
    2.6450   -0.9388    0.4511 N   0  0  0  0  0  0  0  0  0  0  0  0
    1.3807   -1.0137    0.4305 C   0  0  0  0  0  0  0  0  0  0  0  0
    0.7772   -2.1566    1.0022 N   0  0  0  0  0  0  0  0  0  0  0  0
    0.6441   -0.0397   -0.1160 N   0  0  0  0  0  0  0  0  0  0  0  0
   -0.7844   -0.0938   -0.1552 C   0  0  0  0  0  0  0  0  0  0  0  0
   -1.4855   -0.6578   -1.1956 C   0  0  0  0  0  0  0  0  0  0  0  0
   -2.8652   -0.6468   -1.1135 C   0  0  0  0  0  0  0  0  0  0  0  0
   -3.5527   -0.1096   -0.0625 C   0  0  0  0  0  0  0  0  0  0  0  0
   -5.3060   -0.0952    0.0426 Cl  0  0  0  0  0  0  0  0  0  0  0  0
   -2.8452    0.4521    0.9732 C   0  0  0  0  0  0  0  0  0  0  0  0
   -1.4702    0.4454    0.8994 C   0  0  0  0  0  0  0  0  0  0  0  0
  2  1  1  1
  2  3  1  0
  3  4  2  0
  4  5  1  0
  4  6  1  0
  6  7  2  0
  7  8  1  0
  7  9  1  0
  9 10  1  0
 10 11  2  0
 11 12  1  0
 12 13  2  0
 13 14  1  0
 13 15  1  0
 15 16  2  0
  9  2  1  0
 16 10  1  0
M  END
>  <zinc_id>  (119) 
ZINC000002034278

>  <ortholog_name>  (119) 
DRTS_PLAFK

>  <gene_name>  (119) 
DRTS_PLAFK

>  <affinity>  (119) 
6.87

>  <chembldocid>  (119) 
17662

>  <title>  (119) 
None

>  <reference.pubmed_id>  (119) 
14736247

>  <reference.doi>  (119) 
None

>  <reference.chembl_id>  (119) 
CHEMBL1138835

>  <reference.journal>  (119) 
J. Med. Chem.

>  <reference.year>  (119) 
2004

$$$$

     RDKit          3D

 16 17  0  0  0  0  0  0  0  0999 V2000
    1.0038    2.1386    0.6193 C   0  0  0  0  0  0  0  0  0  0  0  0
    1.1718    1.2442   -0.7655 C   0  0  1  0  0  0  0  0  0  0  0  0
    2.6834    1.0956   -0.6158 N   0  0  0  0  0  0  0  0  0  0  0  0
    3.2808    0.1605   -0.0963 C   0  0  0  0  0  0  0  0  0  0  0  0
    4.7224    0.2157   -0.0569 N   0  0  0  0  0  0  0  0  0  0  0  0
    2.6450   -0.9388    0.4511 N   0  0  0  0  0  0  0  0  0  0  0  0
    1.3807   -1.0137    0.4305 C   0  0  0  0  0  0  0  0  0  0  0  0
    0.7772   -2.1566    1.0022 N   0  0  0  0  0  0  0  0  0  0  0  0
    0.6441   -0.0397   -0.1160 N   0  0  0  0  0  0  0  0  0  0  0  0
   -0.7844   -0.0938   -0.1552 C   0  0  0  0  0  0  0  0  0  0  0  0
   -1.4855   -0.6578   -1.1956 C   0  0  0  0  0  0  0  0  0  0  0  0
   -2.8652   -0.6468   -1.1135 C   0  0  0  0  0  0  0  0  0  0  0  0
   -3.5527   -0.1096   -0.0625 C   0  0  0  0  0  0  0  0  0  0  0  0
   -5.3060   -0.0952    0.0426 Cl  0  0  0  0  0  0  0  0  0  0  0  0
   -2.8452    0.4521    0.9732 C   0  0  0  0  0  0  0  0  0  0  0  0
   -1.4702    0.4454    0.8994 C   0  0  0  0  0  0  0  0  0  0  0  0
  2  1  1  1
  2  3  1  0
  3  4  2  0
  4  5  1  0
  4  6  1  0
  6  7  2  0
  7  8  1  0
  7  9  1  0
  9 10  1  0
 10 11  2  0
 11 12  1  0
 12 13  2  0
 13 14  1  0
 13 15  1  0
 15 16  2  0
  9  2  1  0
 16 10  1  0
M  END
>  <zinc_id>  (120) 
ZINC000002034278

>  <ortholog_name>  (120) 
DRTS_PLAFK

>  <gene_name>  (120) 
DRTS_PLAFK

>  <affinity>  (120) 
5.80

>  <chembldocid>  (120) 
17662

>  <title>  (120) 
None

>  <reference.pubmed_id>  (120) 
14736247

>  <reference.doi>  (120) 
None

>  <reference.chembl_id>  (120) 
CHEMBL1138835

>  <reference.journal>  (120) 
J. Med. Chem.

>  <reference.year>  (120) 
2004

$$$$

     RDKit          3D

 16 17  0  0  0  0  0  0  0  0999 V2000
    1.0038    2.1386    0.6193 C   0  0  0  0  0  0  0  0  0  0  0  0
    1.1718    1.2442   -0.7655 C   0  0  1  0  0  0  0  0  0  0  0  0
    2.6834    1.0956   -0.6158 N   0  0  0  0  0  0  0  0  0  0  0  0
    3.2808    0.1605   -0.0963 C   0  0  0  0  0  0  0  0  0  0  0  0
    4.7224    0.2157   -0.0569 N   0  0  0  0  0  0  0  0  0  0  0  0
    2.6450   -0.9388    0.4511 N   0  0  0  0  0  0  0  0  0  0  0  0
    1.3807   -1.0137    0.4305 C   0  0  0  0  0  0  0  0  0  0  0  0
    0.7772   -2.1566    1.0022 N   0  0  0  0  0  0  0  0  0  0  0  0
    0.6441   -0.0397   -0.1160 N   0  0  0  0  0  0  0  0  0  0  0  0
   -0.7844   -0.0938   -0.1552 C   0  0  0  0  0  0  0  0  0  0  0  0
   -1.4855   -0.6578   -1.1956 C   0  0  0  0  0  0  0  0  0  0  0  0
   -2.8652   -0.6468   -1.1135 C   0  0  0  0  0  0  0  0  0  0  0  0
   -3.5527   -0.1096   -0.0625 C   0  0  0  0  0  0  0  0  0  0  0  0
   -5.3060   -0.0952    0.0426 Cl  0  0  0  0  0  0  0  0  0  0  0  0
   -2.8452    0.4521    0.9732 C   0  0  0  0  0  0  0  0  0  0  0  0
   -1.4702    0.4454    0.8994 C   0  0  0  0  0  0  0  0  0  0  0  0
  2  1  1  1
  2  3  1  0
  3  4  2  0
  4  5  1  0
  4  6  1  0
  6  7  2  0
  7  8  1  0
  7  9  1  0
  9 10  1  0
 10 11  2  0
 11 12  1  0
 12 13  2  0
 13 14  1  0
 13 15  1  0
 15 16  2  0
  9  2  1  0
 16 10  1  0
M  END
>  <zinc_id>  (121) 
ZINC000002034278

>  <ortholog_name>  (121) 
DRTS_PLAFK

>  <gene_name>  (121) 
DRTS_PLAFK

>  <affinity>  (121) 
5.61

>  <chembldocid>  (121) 
17662

>  <title>  (121) 
None

>  <reference.pubmed_id>  (121) 
14736247

>  <reference.doi>  (121) 
None

>  <reference.chembl_id>  (121) 
CHEMBL1138835

>  <reference.journal>  (121) 
J. Med. Chem.

>  <reference.year>  (121) 
2004

$$$$

     RDKit          3D

 16 17  0  0  0  0  0  0  0  0999 V2000
    1.0038    2.1386    0.6193 C   0  0  0  0  0  0  0  0  0  0  0  0
    1.1718    1.2442   -0.7655 C   0  0  1  0  0  0  0  0  0  0  0  0
    2.6834    1.0956   -0.6158 N   0  0  0  0  0  0  0  0  0  0  0  0
    3.2808    0.1605   -0.0963 C   0  0  0  0  0  0  0  0  0  0  0  0
    4.7224    0.2157   -0.0569 N   0  0  0  0  0  0  0  0  0  0  0  0
    2.6450   -0.9388    0.4511 N   0  0  0  0  0  0  0  0  0  0  0  0
    1.3807   -1.0137    0.4305 C   0  0  0  0  0  0  0  0  0  0  0  0
    0.7772   -2.1566    1.0022 N   0  0  0  0  0  0  0  0  0  0  0  0
    0.6441   -0.0397   -0.1160 N   0  0  0  0  0  0  0  0  0  0  0  0
   -0.7844   -0.0938   -0.1552 C   0  0  0  0  0  0  0  0  0  0  0  0
   -1.4855   -0.6578   -1.1956 C   0  0  0  0  0  0  0  0  0  0  0  0
   -2.8652   -0.6468   -1.1135 C   0  0  0  0  0  0  0  0  0  0  0  0
   -3.5527   -0.1096   -0.0625 C   0  0  0  0  0  0  0  0  0  0  0  0
   -5.3060   -0.0952    0.0426 Cl  0  0  0  0  0  0  0  0  0  0  0  0
   -2.8452    0.4521    0.9732 C   0  0  0  0  0  0  0  0  0  0  0  0
   -1.4702    0.4454    0.8994 C   0  0  0  0  0  0  0  0  0  0  0  0
  2  1  1  1
  2  3  1  0
  3  4  2  0
  4  5  1  0
  4  6  1  0
  6  7  2  0
  7  8  1  0
  7  9  1  0
  9 10  1  0
 10 11  2  0
 11 12  1  0
 12 13  2  0
 13 14  1  0
 13 15  1  0
 15 16  2  0
  9  2  1  0
 16 10  1  0
M  END
>  <zinc_id>  (122) 
ZINC000002034278

>  <ortholog_name>  (122) 
DRTS_PLAFK

>  <gene_name>  (122) 
DRTS_PLAFK

>  <affinity>  (122) 
8.39

>  <chembldocid>  (122) 
15522

>  <title>  (122) 
None

>  <reference.pubmed_id>  (122) 
10893311

>  <reference.doi>  (122) 
None

>  <reference.chembl_id>  (122) 
CHEMBL1133696

>  <reference.journal>  (122) 
J. Med. Chem.

>  <reference.year>  (122) 
2000

$$$$

     RDKit          3D

 16 17  0  0  0  0  0  0  0  0999 V2000
    1.0038    2.1386    0.6193 C   0  0  0  0  0  0  0  0  0  0  0  0
    1.1718    1.2442   -0.7655 C   0  0  1  0  0  0  0  0  0  0  0  0
    2.6834    1.0956   -0.6158 N   0  0  0  0  0  0  0  0  0  0  0  0
    3.2808    0.1605   -0.0963 C   0  0  0  0  0  0  0  0  0  0  0  0
    4.7224    0.2157   -0.0569 N   0  0  0  0  0  0  0  0  0  0  0  0
    2.6450   -0.9388    0.4511 N   0  0  0  0  0  0  0  0  0  0  0  0
    1.3807   -1.0137    0.4305 C   0  0  0  0  0  0  0  0  0  0  0  0
    0.7772   -2.1566    1.0022 N   0  0  0  0  0  0  0  0  0  0  0  0
    0.6441   -0.0397   -0.1160 N   0  0  0  0  0  0  0  0  0  0  0  0
   -0.7844   -0.0938   -0.1552 C   0  0  0  0  0  0  0  0  0  0  0  0
   -1.4855   -0.6578   -1.1956 C   0  0  0  0  0  0  0  0  0  0  0  0
   -2.8652   -0.6468   -1.1135 C   0  0  0  0  0  0  0  0  0  0  0  0
   -3.5527   -0.1096   -0.0625 C   0  0  0  0  0  0  0  0  0  0  0  0
   -5.3060   -0.0952    0.0426 Cl  0  0  0  0  0  0  0  0  0  0  0  0
   -2.8452    0.4521    0.9732 C   0  0  0  0  0  0  0  0  0  0  0  0
   -1.4702    0.4454    0.8994 C   0  0  0  0  0  0  0  0  0  0  0  0
  2  1  1  1
  2  3  1  0
  3  4  2  0
  4  5  1  0
  4  6  1  0
  6  7  2  0
  7  8  1  0
  7  9  1  0
  9 10  1  0
 10 11  2  0
 11 12  1  0
 12 13  2  0
 13 14  1  0
 13 15  1  0
 15 16  2  0
  9  2  1  0
 16 10  1  0
M  END
>  <zinc_id>  (123) 
ZINC000002034278

>  <ortholog_name>  (123) 
DRTS_PLAFK

>  <gene_name>  (123) 
DRTS_PLAFK

>  <affinity>  (123) 
8.39

>  <chembldocid>  (123) 
17662

>  <title>  (123) 
None

>  <reference.pubmed_id>  (123) 
14736247

>  <reference.doi>  (123) 
None

>  <reference.chembl_id>  (123) 
CHEMBL1138835

>  <reference.journal>  (123) 
J. Med. Chem.

>  <reference.year>  (123) 
2004

$$$$

     RDKit          3D

 16 17  0  0  0  0  0  0  0  0999 V2000
   -1.5082   -0.4301    1.9988 C   0  0  0  0  0  0  0  0  0  0  0  0
   -1.1696    0.9701    1.2022 C   0  0  2  0  0  0  0  0  0  0  0  0
   -2.6124    1.2636    0.7810 N   0  0  0  0  0  0  0  0  0  0  0  0
   -3.1593    1.0196   -0.2651 C   0  0  0  0  0  0  0  0  0  0  0  0
   -4.5389    1.3939   -0.4341 N   0  0  0  0  0  0  0  0  0  0  0  0
   -2.5159    0.3867   -1.3303 N   0  0  0  0  0  0  0  0  0  0  0  0
   -1.3161    0.0517   -1.2072 C   0  0  0  0  0  0  0  0  0  0  0  0
   -0.6697   -0.5955   -2.3056 N   0  0  0  0  0  0  0  0  0  0  0  0
   -0.6085    0.2809   -0.0699 N   0  0  0  0  0  0  0  0  0  0  0  0
    0.7890   -0.1066    0.0793 C   0  0  0  0  0  0  0  0  0  0  0  0
    1.5196    0.1155    1.2164 C   0  0  0  0  0  0  0  0  0  0  0  0
    2.8460   -0.2579    1.3440 C   0  0  0  0  0  0  0  0  0  0  0  0
    3.5153   -0.8839    0.3172 C   0  0  0  0  0  0  0  0  0  0  0  0
    5.2010   -1.3745    0.4396 Cl  0  0  0  0  0  0  0  0  0  0  0  0
    2.7746   -1.1036   -0.8217 C   0  0  0  0  0  0  0  0  0  0  0  0
    1.4531   -0.7298   -0.9444 C   0  0  0  0  0  0  0  0  0  0  0  0
  2  1  1  1
  2  3  1  0
  3  4  2  0
  4  5  1  0
  4  6  1  0
  6  7  2  0
  7  8  1  0
  7  9  1  0
  9 10  1  0
 10 11  2  0
 11 12  1  0
 12 13  2  0
 13 14  1  0
 13 15  1  0
 15 16  2  0
  9  2  1  0
 16 10  1  0
M  END
>  <zinc_id>  (124) 
ZINC000002034279

>  <ortholog_name>  (124) 
DRTS_PLAFK

>  <gene_name>  (124) 
DRTS_PLAFK

>  <affinity>  (124) 
6.90

>  <chembldocid>  (124) 
15522

>  <title>  (124) 
None

>  <reference.pubmed_id>  (124) 
10893311

>  <reference.doi>  (124) 
None

>  <reference.chembl_id>  (124) 
CHEMBL1133696

>  <reference.journal>  (124) 
J. Med. Chem.

>  <reference.year>  (124) 
2000

$$$$

     RDKit          3D

 16 17  0  0  0  0  0  0  0  0999 V2000
   -1.5082   -0.4301    1.9988 C   0  0  0  0  0  0  0  0  0  0  0  0
   -1.1696    0.9701    1.2022 C   0  0  2  0  0  0  0  0  0  0  0  0
   -2.6124    1.2636    0.7810 N   0  0  0  0  0  0  0  0  0  0  0  0
   -3.1593    1.0196   -0.2651 C   0  0  0  0  0  0  0  0  0  0  0  0
   -4.5389    1.3939   -0.4341 N   0  0  0  0  0  0  0  0  0  0  0  0
   -2.5159    0.3867   -1.3303 N   0  0  0  0  0  0  0  0  0  0  0  0
   -1.3161    0.0517   -1.2072 C   0  0  0  0  0  0  0  0  0  0  0  0
   -0.6697   -0.5955   -2.3056 N   0  0  0  0  0  0  0  0  0  0  0  0
   -0.6085    0.2809   -0.0699 N   0  0  0  0  0  0  0  0  0  0  0  0
    0.7890   -0.1066    0.0793 C   0  0  0  0  0  0  0  0  0  0  0  0
    1.5196    0.1155    1.2164 C   0  0  0  0  0  0  0  0  0  0  0  0
    2.8460   -0.2579    1.3440 C   0  0  0  0  0  0  0  0  0  0  0  0
    3.5153   -0.8839    0.3172 C   0  0  0  0  0  0  0  0  0  0  0  0
    5.2010   -1.3745    0.4396 Cl  0  0  0  0  0  0  0  0  0  0  0  0
    2.7746   -1.1036   -0.8217 C   0  0  0  0  0  0  0  0  0  0  0  0
    1.4531   -0.7298   -0.9444 C   0  0  0  0  0  0  0  0  0  0  0  0
  2  1  1  1
  2  3  1  0
  3  4  2  0
  4  5  1  0
  4  6  1  0
  6  7  2  0
  7  8  1  0
  7  9  1  0
  9 10  1  0
 10 11  2  0
 11 12  1  0
 12 13  2  0
 13 14  1  0
 13 15  1  0
 15 16  2  0
  9  2  1  0
 16 10  1  0
M  END
>  <zinc_id>  (125) 
ZINC000002034279

>  <ortholog_name>  (125) 
DRTS_PLAFK

>  <gene_name>  (125) 
DRTS_PLAFK

>  <affinity>  (125) 
6.90

>  <chembldocid>  (125) 
17662

>  <title>  (125) 
None

>  <reference.pubmed_id>  (125) 
14736247

>  <reference.doi>  (125) 
None

>  <reference.chembl_id>  (125) 
CHEMBL1138835

>  <reference.journal>  (125) 
J. Med. Chem.

>  <reference.year>  (125) 
2004

$$$$

     RDKit          3D

 16 17  0  0  0  0  0  0  0  0999 V2000
   -1.5082   -0.4301    1.9988 C   0  0  0  0  0  0  0  0  0  0  0  0
   -1.1696    0.9701    1.2022 C   0  0  2  0  0  0  0  0  0  0  0  0
   -2.6124    1.2636    0.7810 N   0  0  0  0  0  0  0  0  0  0  0  0
   -3.1593    1.0196   -0.2651 C   0  0  0  0  0  0  0  0  0  0  0  0
   -4.5389    1.3939   -0.4341 N   0  0  0  0  0  0  0  0  0  0  0  0
   -2.5159    0.3867   -1.3303 N   0  0  0  0  0  0  0  0  0  0  0  0
   -1.3161    0.0517   -1.2072 C   0  0  0  0  0  0  0  0  0  0  0  0
   -0.6697   -0.5955   -2.3056 N   0  0  0  0  0  0  0  0  0  0  0  0
   -0.6085    0.2809   -0.0699 N   0  0  0  0  0  0  0  0  0  0  0  0
    0.7890   -0.1066    0.0793 C   0  0  0  0  0  0  0  0  0  0  0  0
    1.5196    0.1155    1.2164 C   0  0  0  0  0  0  0  0  0  0  0  0
    2.8460   -0.2579    1.3440 C   0  0  0  0  0  0  0  0  0  0  0  0
    3.5153   -0.8839    0.3172 C   0  0  0  0  0  0  0  0  0  0  0  0
    5.2010   -1.3745    0.4396 Cl  0  0  0  0  0  0  0  0  0  0  0  0
    2.7746   -1.1036   -0.8217 C   0  0  0  0  0  0  0  0  0  0  0  0
    1.4531   -0.7298   -0.9444 C   0  0  0  0  0  0  0  0  0  0  0  0
  2  1  1  1
  2  3  1  0
  3  4  2  0
  4  5  1  0
  4  6  1  0
  6  7  2  0
  7  8  1  0
  7  9  1  0
  9 10  1  0
 10 11  2  0
 11 12  1  0
 12 13  2  0
 13 14  1  0
 13 15  1  0
 15 16  2  0
  9  2  1  0
 16 10  1  0
M  END
>  <zinc_id>  (126) 
ZINC000002034279

>  <ortholog_name>  (126) 
DRTS_PLAFK

>  <gene_name>  (126) 
DRTS_PLAFK

>  <affinity>  (126) 
6.87

>  <chembldocid>  (126) 
17662

>  <title>  (126) 
None

>  <reference.pubmed_id>  (126) 
14736247

>  <reference.doi>  (126) 
None

>  <reference.chembl_id>  (126) 
CHEMBL1138835

>  <reference.journal>  (126) 
J. Med. Chem.

>  <reference.year>  (126) 
2004

$$$$

     RDKit          3D

 16 17  0  0  0  0  0  0  0  0999 V2000
   -1.5082   -0.4301    1.9988 C   0  0  0  0  0  0  0  0  0  0  0  0
   -1.1696    0.9701    1.2022 C   0  0  2  0  0  0  0  0  0  0  0  0
   -2.6124    1.2636    0.7810 N   0  0  0  0  0  0  0  0  0  0  0  0
   -3.1593    1.0196   -0.2651 C   0  0  0  0  0  0  0  0  0  0  0  0
   -4.5389    1.3939   -0.4341 N   0  0  0  0  0  0  0  0  0  0  0  0
   -2.5159    0.3867   -1.3303 N   0  0  0  0  0  0  0  0  0  0  0  0
   -1.3161    0.0517   -1.2072 C   0  0  0  0  0  0  0  0  0  0  0  0
   -0.6697   -0.5955   -2.3056 N   0  0  0  0  0  0  0  0  0  0  0  0
   -0.6085    0.2809   -0.0699 N   0  0  0  0  0  0  0  0  0  0  0  0
    0.7890   -0.1066    0.0793 C   0  0  0  0  0  0  0  0  0  0  0  0
    1.5196    0.1155    1.2164 C   0  0  0  0  0  0  0  0  0  0  0  0
    2.8460   -0.2579    1.3440 C   0  0  0  0  0  0  0  0  0  0  0  0
    3.5153   -0.8839    0.3172 C   0  0  0  0  0  0  0  0  0  0  0  0
    5.2010   -1.3745    0.4396 Cl  0  0  0  0  0  0  0  0  0  0  0  0
    2.7746   -1.1036   -0.8217 C   0  0  0  0  0  0  0  0  0  0  0  0
    1.4531   -0.7298   -0.9444 C   0  0  0  0  0  0  0  0  0  0  0  0
  2  1  1  1
  2  3  1  0
  3  4  2  0
  4  5  1  0
  4  6  1  0
  6  7  2  0
  7  8  1  0
  7  9  1  0
  9 10  1  0
 10 11  2  0
 11 12  1  0
 12 13  2  0
 13 14  1  0
 13 15  1  0
 15 16  2  0
  9  2  1  0
 16 10  1  0
M  END
>  <zinc_id>  (127) 
ZINC000002034279

>  <ortholog_name>  (127) 
DRTS_PLAFK

>  <gene_name>  (127) 
DRTS_PLAFK

>  <affinity>  (127) 
5.80

>  <chembldocid>  (127) 
17662

>  <title>  (127) 
None

>  <reference.pubmed_id>  (127) 
14736247

>  <reference.doi>  (127) 
None

>  <reference.chembl_id>  (127) 
CHEMBL1138835

>  <reference.journal>  (127) 
J. Med. Chem.

>  <reference.year>  (127) 
2004

$$$$

     RDKit          3D

 16 17  0  0  0  0  0  0  0  0999 V2000
   -1.5082   -0.4301    1.9988 C   0  0  0  0  0  0  0  0  0  0  0  0
   -1.1696    0.9701    1.2022 C   0  0  2  0  0  0  0  0  0  0  0  0
   -2.6124    1.2636    0.7810 N   0  0  0  0  0  0  0  0  0  0  0  0
   -3.1593    1.0196   -0.2651 C   0  0  0  0  0  0  0  0  0  0  0  0
   -4.5389    1.3939   -0.4341 N   0  0  0  0  0  0  0  0  0  0  0  0
   -2.5159    0.3867   -1.3303 N   0  0  0  0  0  0  0  0  0  0  0  0
   -1.3161    0.0517   -1.2072 C   0  0  0  0  0  0  0  0  0  0  0  0
   -0.6697   -0.5955   -2.3056 N   0  0  0  0  0  0  0  0  0  0  0  0
   -0.6085    0.2809   -0.0699 N   0  0  0  0  0  0  0  0  0  0  0  0
    0.7890   -0.1066    0.0793 C   0  0  0  0  0  0  0  0  0  0  0  0
    1.5196    0.1155    1.2164 C   0  0  0  0  0  0  0  0  0  0  0  0
    2.8460   -0.2579    1.3440 C   0  0  0  0  0  0  0  0  0  0  0  0
    3.5153   -0.8839    0.3172 C   0  0  0  0  0  0  0  0  0  0  0  0
    5.2010   -1.3745    0.4396 Cl  0  0  0  0  0  0  0  0  0  0  0  0
    2.7746   -1.1036   -0.8217 C   0  0  0  0  0  0  0  0  0  0  0  0
    1.4531   -0.7298   -0.9444 C   0  0  0  0  0  0  0  0  0  0  0  0
  2  1  1  1
  2  3  1  0
  3  4  2  0
  4  5  1  0
  4  6  1  0
  6  7  2  0
  7  8  1  0
  7  9  1  0
  9 10  1  0
 10 11  2  0
 11 12  1  0
 12 13  2  0
 13 14  1  0
 13 15  1  0
 15 16  2  0
  9  2  1  0
 16 10  1  0
M  END
>  <zinc_id>  (128) 
ZINC000002034279

>  <ortholog_name>  (128) 
DRTS_PLAFK

>  <gene_name>  (128) 
DRTS_PLAFK

>  <affinity>  (128) 
5.61

>  <chembldocid>  (128) 
17662

>  <title>  (128) 
None

>  <reference.pubmed_id>  (128) 
14736247

>  <reference.doi>  (128) 
None

>  <reference.chembl_id>  (128) 
CHEMBL1138835

>  <reference.journal>  (128) 
J. Med. Chem.

>  <reference.year>  (128) 
2004

$$$$

     RDKit          3D

 16 17  0  0  0  0  0  0  0  0999 V2000
   -1.5082   -0.4301    1.9988 C   0  0  0  0  0  0  0  0  0  0  0  0
   -1.1696    0.9701    1.2022 C   0  0  2  0  0  0  0  0  0  0  0  0
   -2.6124    1.2636    0.7810 N   0  0  0  0  0  0  0  0  0  0  0  0
   -3.1593    1.0196   -0.2651 C   0  0  0  0  0  0  0  0  0  0  0  0
   -4.5389    1.3939   -0.4341 N   0  0  0  0  0  0  0  0  0  0  0  0
   -2.5159    0.3867   -1.3303 N   0  0  0  0  0  0  0  0  0  0  0  0
   -1.3161    0.0517   -1.2072 C   0  0  0  0  0  0  0  0  0  0  0  0
   -0.6697   -0.5955   -2.3056 N   0  0  0  0  0  0  0  0  0  0  0  0
   -0.6085    0.2809   -0.0699 N   0  0  0  0  0  0  0  0  0  0  0  0
    0.7890   -0.1066    0.0793 C   0  0  0  0  0  0  0  0  0  0  0  0
    1.5196    0.1155    1.2164 C   0  0  0  0  0  0  0  0  0  0  0  0
    2.8460   -0.2579    1.3440 C   0  0  0  0  0  0  0  0  0  0  0  0
    3.5153   -0.8839    0.3172 C   0  0  0  0  0  0  0  0  0  0  0  0
    5.2010   -1.3745    0.4396 Cl  0  0  0  0  0  0  0  0  0  0  0  0
    2.7746   -1.1036   -0.8217 C   0  0  0  0  0  0  0  0  0  0  0  0
    1.4531   -0.7298   -0.9444 C   0  0  0  0  0  0  0  0  0  0  0  0
  2  1  1  1
  2  3  1  0
  3  4  2  0
  4  5  1  0
  4  6  1  0
  6  7  2  0
  7  8  1  0
  7  9  1  0
  9 10  1  0
 10 11  2  0
 11 12  1  0
 12 13  2  0
 13 14  1  0
 13 15  1  0
 15 16  2  0
  9  2  1  0
 16 10  1  0
M  END
>  <zinc_id>  (129) 
ZINC000002034279

>  <ortholog_name>  (129) 
DRTS_PLAFK

>  <gene_name>  (129) 
DRTS_PLAFK

>  <affinity>  (129) 
8.39

>  <chembldocid>  (129) 
15522

>  <title>  (129) 
None

>  <reference.pubmed_id>  (129) 
10893311

>  <reference.doi>  (129) 
None

>  <reference.chembl_id>  (129) 
CHEMBL1133696

>  <reference.journal>  (129) 
J. Med. Chem.

>  <reference.year>  (129) 
2000

$$$$

     RDKit          3D

 16 17  0  0  0  0  0  0  0  0999 V2000
   -1.5082   -0.4301    1.9988 C   0  0  0  0  0  0  0  0  0  0  0  0
   -1.1696    0.9701    1.2022 C   0  0  2  0  0  0  0  0  0  0  0  0
   -2.6124    1.2636    0.7810 N   0  0  0  0  0  0  0  0  0  0  0  0
   -3.1593    1.0196   -0.2651 C   0  0  0  0  0  0  0  0  0  0  0  0
   -4.5389    1.3939   -0.4341 N   0  0  0  0  0  0  0  0  0  0  0  0
   -2.5159    0.3867   -1.3303 N   0  0  0  0  0  0  0  0  0  0  0  0
   -1.3161    0.0517   -1.2072 C   0  0  0  0  0  0  0  0  0  0  0  0
   -0.6697   -0.5955   -2.3056 N   0  0  0  0  0  0  0  0  0  0  0  0
   -0.6085    0.2809   -0.0699 N   0  0  0  0  0  0  0  0  0  0  0  0
    0.7890   -0.1066    0.0793 C   0  0  0  0  0  0  0  0  0  0  0  0
    1.5196    0.1155    1.2164 C   0  0  0  0  0  0  0  0  0  0  0  0
    2.8460   -0.2579    1.3440 C   0  0  0  0  0  0  0  0  0  0  0  0
    3.5153   -0.8839    0.3172 C   0  0  0  0  0  0  0  0  0  0  0  0
    5.2010   -1.3745    0.4396 Cl  0  0  0  0  0  0  0  0  0  0  0  0
    2.7746   -1.1036   -0.8217 C   0  0  0  0  0  0  0  0  0  0  0  0
    1.4531   -0.7298   -0.9444 C   0  0  0  0  0  0  0  0  0  0  0  0
  2  1  1  1
  2  3  1  0
  3  4  2  0
  4  5  1  0
  4  6  1  0
  6  7  2  0
  7  8  1  0
  7  9  1  0
  9 10  1  0
 10 11  2  0
 11 12  1  0
 12 13  2  0
 13 14  1  0
 13 15  1  0
 15 16  2  0
  9  2  1  0
 16 10  1  0
M  END
>  <zinc_id>  (130) 
ZINC000002034279

>  <ortholog_name>  (130) 
DRTS_PLAFK

>  <gene_name>  (130) 
DRTS_PLAFK

>  <affinity>  (130) 
8.39

>  <chembldocid>  (130) 
17662

>  <title>  (130) 
None

>  <reference.pubmed_id>  (130) 
14736247

>  <reference.doi>  (130) 
None

>  <reference.chembl_id>  (130) 
CHEMBL1138835

>  <reference.journal>  (130) 
J. Med. Chem.

>  <reference.year>  (130) 
2004

$$$$

     RDKit          3D

 24 25  0  0  0  0  0  0  0  0999 V2000
    7.9943    1.8096   -0.1853 N   0  0  0  0  0  0  0  0  0  0  0  0
    6.6440    1.5740   -0.0887 C   0  0  0  0  0  0  0  0  0  0  0  0
    5.6938    1.5186   -1.4207 S   0  0  0  0  0  0  0  0  0  0  0  0
    5.9961    1.3833    1.2130 N   0  0  0  0  0  0  0  0  0  0  0  0
    4.5555    1.1442    1.0451 N   0  0  0  0  0  0  0  0  0  0  0  0
    4.3386   -0.0567    0.5682 C   0  0  0  0  0  0  0  0  0  0  0  0
    2.9937   -0.4717    0.3355 C   0  0  0  0  0  0  0  0  0  0  0  0
    1.9290    0.3669    0.5533 C   0  0  0  0  0  0  0  0  0  0  0  0
    0.6046   -0.0248    0.2303 C   0  0  0  0  0  0  0  0  0  0  0  0
    0.3858   -1.2486   -0.3046 C   0  0  0  0  0  0  0  0  0  0  0  0
   -0.8398   -1.7533   -0.6589 O   0  0  0  0  0  0  0  0  0  0  0  0
   -1.9786   -1.0132   -0.2295 C   0  0  0  0  0  0  0  0  0  0  0  0
   -1.8386    0.1409    0.4469 N   0  0  0  0  0  0  0  0  0  0  0  0
   -2.9520    0.7919    0.8456 C   0  0  0  0  0  0  0  0  0  0  0  0
   -4.1915    0.2682    0.5765 C   0  0  0  0  0  0  0  0  0  0  0  0
   -5.4341    1.0569    0.9659 C   0  0  0  0  0  0  0  0  0  0  0  0
   -6.5124    0.2233    0.9432 F   0  0  0  0  0  0  0  0  0  0  0  0
   -5.2201    1.7062    2.1580 F   0  0  0  0  0  0  0  0  0  0  0  0
   -5.5794    1.9689   -0.0916 F   0  0  0  0  0  0  0  0  0  0  0  0
   -4.3394   -0.8947   -0.1014 C   0  0  0  0  0  0  0  0  0  0  0  0
   -3.1920   -1.5853   -0.5333 C   0  0  0  0  0  0  0  0  0  0  0  0
   -3.2390   -3.0700   -1.4240 Cl  0  0  0  0  0  0  0  0  0  0  0  0
    1.4600   -2.1215   -0.5323 C   0  0  0  0  0  0  0  0  0  0  0  0
    2.7215   -1.7133   -0.2068 C   0  0  0  0  0  0  0  0  0  0  0  0
  1  2  1  0
  2  3  2  0
  2  4  1  0
  4  5  1  0
  5  6  2  0
  6  7  1  0
  7  8  2  0
  8  9  1  0
  9 10  2  0
 10 11  1  0
 11 12  1  0
 12 13  2  0
 13 14  1  0
 14 15  2  0
 15 16  1  0
 16 17  1  0
 16 18  1  0
 16 19  1  0
 15 20  1  0
 20 21  2  0
 21 22  1  0
 10 23  1  0
 23 24  2  0
 24  7  1  0
 21 12  1  0
M  END
>  <zinc_id>  (131) 
ZINC000002571257

>  <ortholog_name>  (131) 
DRTS_PLAFK

>  <gene_name>  (131) 
DRTS_PLAFK

>  <affinity>  (131) 
5.64

>  <chembldocid>  (131) 
17071

>  <title>  (131) 
None

>  <reference.pubmed_id>  (131) 
12825927

>  <reference.doi>  (131) 
None

>  <reference.chembl_id>  (131) 
CHEMBL1145823

>  <reference.journal>  (131) 
J. Med. Chem.

>  <reference.year>  (131) 
2003

$$$$

     RDKit          3D

 24 25  0  0  0  0  0  0  0  0999 V2000
    7.9943    1.8096   -0.1853 N   0  0  0  0  0  0  0  0  0  0  0  0
    6.6440    1.5740   -0.0887 C   0  0  0  0  0  0  0  0  0  0  0  0
    5.6938    1.5186   -1.4207 S   0  0  0  0  0  0  0  0  0  0  0  0
    5.9961    1.3833    1.2130 N   0  0  0  0  0  0  0  0  0  0  0  0
    4.5555    1.1442    1.0451 N   0  0  0  0  0  0  0  0  0  0  0  0
    4.3386   -0.0567    0.5682 C   0  0  0  0  0  0  0  0  0  0  0  0
    2.9937   -0.4717    0.3355 C   0  0  0  0  0  0  0  0  0  0  0  0
    1.9290    0.3669    0.5533 C   0  0  0  0  0  0  0  0  0  0  0  0
    0.6046   -0.0248    0.2303 C   0  0  0  0  0  0  0  0  0  0  0  0
    0.3858   -1.2486   -0.3046 C   0  0  0  0  0  0  0  0  0  0  0  0
   -0.8398   -1.7533   -0.6589 O   0  0  0  0  0  0  0  0  0  0  0  0
   -1.9786   -1.0132   -0.2295 C   0  0  0  0  0  0  0  0  0  0  0  0
   -1.8386    0.1409    0.4469 N   0  0  0  0  0  0  0  0  0  0  0  0
   -2.9520    0.7919    0.8456 C   0  0  0  0  0  0  0  0  0  0  0  0
   -4.1915    0.2682    0.5765 C   0  0  0  0  0  0  0  0  0  0  0  0
   -5.4341    1.0569    0.9659 C   0  0  0  0  0  0  0  0  0  0  0  0
   -6.5124    0.2233    0.9432 F   0  0  0  0  0  0  0  0  0  0  0  0
   -5.2201    1.7062    2.1580 F   0  0  0  0  0  0  0  0  0  0  0  0
   -5.5794    1.9689   -0.0916 F   0  0  0  0  0  0  0  0  0  0  0  0
   -4.3394   -0.8947   -0.1014 C   0  0  0  0  0  0  0  0  0  0  0  0
   -3.1920   -1.5853   -0.5333 C   0  0  0  0  0  0  0  0  0  0  0  0
   -3.2390   -3.0700   -1.4240 Cl  0  0  0  0  0  0  0  0  0  0  0  0
    1.4600   -2.1215   -0.5323 C   0  0  0  0  0  0  0  0  0  0  0  0
    2.7215   -1.7133   -0.2068 C   0  0  0  0  0  0  0  0  0  0  0  0
  1  2  1  0
  2  3  2  0
  2  4  1  0
  4  5  1  0
  5  6  2  0
  6  7  1  0
  7  8  2  0
  8  9  1  0
  9 10  2  0
 10 11  1  0
 11 12  1  0
 12 13  2  0
 13 14  1  0
 14 15  2  0
 15 16  1  0
 16 17  1  0
 16 18  1  0
 16 19  1  0
 15 20  1  0
 20 21  2  0
 21 22  1  0
 10 23  1  0
 23 24  2  0
 24  7  1  0
 21 12  1  0
M  END
>  <zinc_id>  (132) 
ZINC000002571257

>  <ortholog_name>  (132) 
DRTS_PLAFK

>  <gene_name>  (132) 
DRTS_PLAFK

>  <affinity>  (132) 
5.28

>  <chembldocid>  (132) 
17071

>  <title>  (132) 
None

>  <reference.pubmed_id>  (132) 
12825927

>  <reference.doi>  (132) 
None

>  <reference.chembl_id>  (132) 
CHEMBL1145823

>  <reference.journal>  (132) 
J. Med. Chem.

>  <reference.year>  (132) 
2003

$$$$

     RDKit          3D

 24 25  0  0  0  0  0  0  0  0999 V2000
    7.9943    1.8096   -0.1853 N   0  0  0  0  0  0  0  0  0  0  0  0
    6.6440    1.5740   -0.0887 C   0  0  0  0  0  0  0  0  0  0  0  0
    5.6938    1.5186   -1.4207 S   0  0  0  0  0  0  0  0  0  0  0  0
    5.9961    1.3833    1.2130 N   0  0  0  0  0  0  0  0  0  0  0  0
    4.5555    1.1442    1.0451 N   0  0  0  0  0  0  0  0  0  0  0  0
    4.3386   -0.0567    0.5682 C   0  0  0  0  0  0  0  0  0  0  0  0
    2.9937   -0.4717    0.3355 C   0  0  0  0  0  0  0  0  0  0  0  0
    1.9290    0.3669    0.5533 C   0  0  0  0  0  0  0  0  0  0  0  0
    0.6046   -0.0248    0.2303 C   0  0  0  0  0  0  0  0  0  0  0  0
    0.3858   -1.2486   -0.3046 C   0  0  0  0  0  0  0  0  0  0  0  0
   -0.8398   -1.7533   -0.6589 O   0  0  0  0  0  0  0  0  0  0  0  0
   -1.9786   -1.0132   -0.2295 C   0  0  0  0  0  0  0  0  0  0  0  0
   -1.8386    0.1409    0.4469 N   0  0  0  0  0  0  0  0  0  0  0  0
   -2.9520    0.7919    0.8456 C   0  0  0  0  0  0  0  0  0  0  0  0
   -4.1915    0.2682    0.5765 C   0  0  0  0  0  0  0  0  0  0  0  0
   -5.4341    1.0569    0.9659 C   0  0  0  0  0  0  0  0  0  0  0  0
   -6.5124    0.2233    0.9432 F   0  0  0  0  0  0  0  0  0  0  0  0
   -5.2201    1.7062    2.1580 F   0  0  0  0  0  0  0  0  0  0  0  0
   -5.5794    1.9689   -0.0916 F   0  0  0  0  0  0  0  0  0  0  0  0
   -4.3394   -0.8947   -0.1014 C   0  0  0  0  0  0  0  0  0  0  0  0
   -3.1920   -1.5853   -0.5333 C   0  0  0  0  0  0  0  0  0  0  0  0
   -3.2390   -3.0700   -1.4240 Cl  0  0  0  0  0  0  0  0  0  0  0  0
    1.4600   -2.1215   -0.5323 C   0  0  0  0  0  0  0  0  0  0  0  0
    2.7215   -1.7133   -0.2068 C   0  0  0  0  0  0  0  0  0  0  0  0
  1  2  1  0
  2  3  2  0
  2  4  1  0
  4  5  1  0
  5  6  2  0
  6  7  1  0
  7  8  2  0
  8  9  1  0
  9 10  2  0
 10 11  1  0
 11 12  1  0
 12 13  2  0
 13 14  1  0
 14 15  2  0
 15 16  1  0
 16 17  1  0
 16 18  1  0
 16 19  1  0
 15 20  1  0
 20 21  2  0
 21 22  1  0
 10 23  1  0
 23 24  2  0
 24  7  1  0
 21 12  1  0
M  END
>  <zinc_id>  (133) 
ZINC000002571257

>  <ortholog_name>  (133) 
DRTS_PLAFK

>  <gene_name>  (133) 
DRTS_PLAFK

>  <affinity>  (133) 
5.17

>  <chembldocid>  (133) 
17071

>  <title>  (133) 
None

>  <reference.pubmed_id>  (133) 
12825927

>  <reference.doi>  (133) 
None

>  <reference.chembl_id>  (133) 
CHEMBL1145823

>  <reference.journal>  (133) 
J. Med. Chem.

>  <reference.year>  (133) 
2003

$$$$

     RDKit          3D

 24 25  0  0  0  0  0  0  0  0999 V2000
    7.9943    1.8096   -0.1853 N   0  0  0  0  0  0  0  0  0  0  0  0
    6.6440    1.5740   -0.0887 C   0  0  0  0  0  0  0  0  0  0  0  0
    5.6938    1.5186   -1.4207 S   0  0  0  0  0  0  0  0  0  0  0  0
    5.9961    1.3833    1.2130 N   0  0  0  0  0  0  0  0  0  0  0  0
    4.5555    1.1442    1.0451 N   0  0  0  0  0  0  0  0  0  0  0  0
    4.3386   -0.0567    0.5682 C   0  0  0  0  0  0  0  0  0  0  0  0
    2.9937   -0.4717    0.3355 C   0  0  0  0  0  0  0  0  0  0  0  0
    1.9290    0.3669    0.5533 C   0  0  0  0  0  0  0  0  0  0  0  0
    0.6046   -0.0248    0.2303 C   0  0  0  0  0  0  0  0  0  0  0  0
    0.3858   -1.2486   -0.3046 C   0  0  0  0  0  0  0  0  0  0  0  0
   -0.8398   -1.7533   -0.6589 O   0  0  0  0  0  0  0  0  0  0  0  0
   -1.9786   -1.0132   -0.2295 C   0  0  0  0  0  0  0  0  0  0  0  0
   -1.8386    0.1409    0.4469 N   0  0  0  0  0  0  0  0  0  0  0  0
   -2.9520    0.7919    0.8456 C   0  0  0  0  0  0  0  0  0  0  0  0
   -4.1915    0.2682    0.5765 C   0  0  0  0  0  0  0  0  0  0  0  0
   -5.4341    1.0569    0.9659 C   0  0  0  0  0  0  0  0  0  0  0  0
   -6.5124    0.2233    0.9432 F   0  0  0  0  0  0  0  0  0  0  0  0
   -5.2201    1.7062    2.1580 F   0  0  0  0  0  0  0  0  0  0  0  0
   -5.5794    1.9689   -0.0916 F   0  0  0  0  0  0  0  0  0  0  0  0
   -4.3394   -0.8947   -0.1014 C   0  0  0  0  0  0  0  0  0  0  0  0
   -3.1920   -1.5853   -0.5333 C   0  0  0  0  0  0  0  0  0  0  0  0
   -3.2390   -3.0700   -1.4240 Cl  0  0  0  0  0  0  0  0  0  0  0  0
    1.4600   -2.1215   -0.5323 C   0  0  0  0  0  0  0  0  0  0  0  0
    2.7215   -1.7133   -0.2068 C   0  0  0  0  0  0  0  0  0  0  0  0
  1  2  1  0
  2  3  2  0
  2  4  1  0
  4  5  1  0
  5  6  2  0
  6  7  1  0
  7  8  2  0
  8  9  1  0
  9 10  2  0
 10 11  1  0
 11 12  1  0
 12 13  2  0
 13 14  1  0
 14 15  2  0
 15 16  1  0
 16 17  1  0
 16 18  1  0
 16 19  1  0
 15 20  1  0
 20 21  2  0
 21 22  1  0
 10 23  1  0
 23 24  2  0
 24  7  1  0
 21 12  1  0
M  END
>  <zinc_id>  (134) 
ZINC000002571257

>  <ortholog_name>  (134) 
DRTS_PLAFK

>  <gene_name>  (134) 
DRTS_PLAFK

>  <affinity>  (134) 
5.05

>  <chembldocid>  (134) 
21047

>  <title>  (134) 
None

>  <reference.pubmed_id>  (134) 
15293997

>  <reference.doi>  (134) 
None

>  <reference.chembl_id>  (134) 
CHEMBL1138679

>  <reference.journal>  (134) 
J. Med. Chem.

>  <reference.year>  (134) 
2004

$$$$

     RDKit          3D

 24 25  0  0  0  0  0  0  0  0999 V2000
    7.9943    1.8096   -0.1853 N   0  0  0  0  0  0  0  0  0  0  0  0
    6.6440    1.5740   -0.0887 C   0  0  0  0  0  0  0  0  0  0  0  0
    5.6938    1.5186   -1.4207 S   0  0  0  0  0  0  0  0  0  0  0  0
    5.9961    1.3833    1.2130 N   0  0  0  0  0  0  0  0  0  0  0  0
    4.5555    1.1442    1.0451 N   0  0  0  0  0  0  0  0  0  0  0  0
    4.3386   -0.0567    0.5682 C   0  0  0  0  0  0  0  0  0  0  0  0
    2.9937   -0.4717    0.3355 C   0  0  0  0  0  0  0  0  0  0  0  0
    1.9290    0.3669    0.5533 C   0  0  0  0  0  0  0  0  0  0  0  0
    0.6046   -0.0248    0.2303 C   0  0  0  0  0  0  0  0  0  0  0  0
    0.3858   -1.2486   -0.3046 C   0  0  0  0  0  0  0  0  0  0  0  0
   -0.8398   -1.7533   -0.6589 O   0  0  0  0  0  0  0  0  0  0  0  0
   -1.9786   -1.0132   -0.2295 C   0  0  0  0  0  0  0  0  0  0  0  0
   -1.8386    0.1409    0.4469 N   0  0  0  0  0  0  0  0  0  0  0  0
   -2.9520    0.7919    0.8456 C   0  0  0  0  0  0  0  0  0  0  0  0
   -4.1915    0.2682    0.5765 C   0  0  0  0  0  0  0  0  0  0  0  0
   -5.4341    1.0569    0.9659 C   0  0  0  0  0  0  0  0  0  0  0  0
   -6.5124    0.2233    0.9432 F   0  0  0  0  0  0  0  0  0  0  0  0
   -5.2201    1.7062    2.1580 F   0  0  0  0  0  0  0  0  0  0  0  0
   -5.5794    1.9689   -0.0916 F   0  0  0  0  0  0  0  0  0  0  0  0
   -4.3394   -0.8947   -0.1014 C   0  0  0  0  0  0  0  0  0  0  0  0
   -3.1920   -1.5853   -0.5333 C   0  0  0  0  0  0  0  0  0  0  0  0
   -3.2390   -3.0700   -1.4240 Cl  0  0  0  0  0  0  0  0  0  0  0  0
    1.4600   -2.1215   -0.5323 C   0  0  0  0  0  0  0  0  0  0  0  0
    2.7215   -1.7133   -0.2068 C   0  0  0  0  0  0  0  0  0  0  0  0
  1  2  1  0
  2  3  2  0
  2  4  1  0
  4  5  1  0
  5  6  2  0
  6  7  1  0
  7  8  2  0
  8  9  1  0
  9 10  2  0
 10 11  1  0
 11 12  1  0
 12 13  2  0
 13 14  1  0
 14 15  2  0
 15 16  1  0
 16 17  1  0
 16 18  1  0
 16 19  1  0
 15 20  1  0
 20 21  2  0
 21 22  1  0
 10 23  1  0
 23 24  2  0
 24  7  1  0
 21 12  1  0
M  END
>  <zinc_id>  (135) 
ZINC000002571257

>  <ortholog_name>  (135) 
DRTS_PLAFK

>  <gene_name>  (135) 
DRTS_PLAFK

>  <affinity>  (135) 
5.03

>  <chembldocid>  (135) 
17071

>  <title>  (135) 
None

>  <reference.pubmed_id>  (135) 
12825927

>  <reference.doi>  (135) 
None

>  <reference.chembl_id>  (135) 
CHEMBL1145823

>  <reference.journal>  (135) 
J. Med. Chem.

>  <reference.year>  (135) 
2003

$$$$

     RDKit          3D

 21 23  0  0  0  0  0  0  0  0999 V2000
    4.8086   -2.3987   -0.4263 C   0  0  0  0  0  0  0  0  0  0  0  0
    3.6091   -1.5322   -0.2380 C   0  0  0  0  0  0  0  0  0  0  0  0
    2.6953   -1.2998   -1.2524 C   0  0  0  0  0  0  0  0  0  0  0  0
    1.5948   -0.4879   -1.0339 C   0  0  0  0  0  0  0  0  0  0  0  0
    1.4237    0.0810    0.1983 C   0  0  0  0  0  0  0  0  0  0  0  0
    0.2907    0.9416    0.4907 N   0  0  0  0  0  0  0  0  0  0  0  0
    0.1099    1.5379    1.6978 C   0  0  0  0  0  0  0  0  0  0  0  0
    1.1221    1.2375    2.6993 N   0  0  0  0  0  0  0  0  0  0  0  0
   -0.8711    2.3085    1.9516 N   0  0  0  0  0  0  0  0  0  0  0  0
   -1.7999    2.5265    0.8955 C   0  0  0  0  0  0  0  0  0  0  0  0
   -2.9242    3.4033    1.1571 N   0  0  0  0  0  0  0  0  0  0  0  0
   -1.7349    2.0353   -0.2268 N   0  0  0  0  0  0  0  0  0  0  0  0
   -0.6506    1.0796   -0.7477 C   0  0  2  0  0  0  0  0  0  0  0  0
   -1.4676   -0.2815   -0.6484 C   0  0  0  0  0  0  0  0  0  0  0  0
   -0.9638   -1.3889   -0.1073 C   0  0  0  0  0  0  0  0  0  0  0  0
   -1.7276   -2.5296   -0.0601 C   0  0  0  0  0  0  0  0  0  0  0  0
   -2.9990   -2.5320   -0.5650 C   0  0  0  0  0  0  0  0  0  0  0  0
   -3.5235   -1.3886   -1.1253 C   0  0  0  0  0  0  0  0  0  0  0  0
   -2.7127   -0.2284   -1.1598 C   0  0  0  0  0  0  0  0  0  0  0  0
    2.3075   -0.1380    1.1950 C   0  0  0  0  0  0  0  0  0  0  0  0
    3.4132   -0.9455    0.9978 C   0  0  0  0  0  0  0  0  0  0  0  0
  1  2  1  0
  2  3  2  0
  3  4  1  0
  4  5  2  0
  5  6  1  0
  6  7  1  0
  7  8  1  0
  7  9  2  0
  9 10  1  0
 10 11  1  0
 10 12  2  0
 12 13  1  0
 13 14  1  1
 14 15  2  0
 15 16  1  0
 16 17  2  0
 17 18  1  0
 18 19  2  0
  5 20  1  0
 20 21  2  0
 21  2  1  0
 13  6  1  0
 19 14  1  0
M  END
>  <zinc_id>  (136) 
ZINC000003076473

>  <ortholog_name>  (136) 
DRTS_PLAFK

>  <gene_name>  (136) 
DRTS_PLAFK

>  <affinity>  (136) 
6.77

>  <chembldocid>  (136) 
15522

>  <title>  (136) 
None

>  <reference.pubmed_id>  (136) 
10893311

>  <reference.doi>  (136) 
None

>  <reference.chembl_id>  (136) 
CHEMBL1133696

>  <reference.journal>  (136) 
J. Med. Chem.

>  <reference.year>  (136) 
2000

$$$$

     RDKit          3D

 21 23  0  0  0  0  0  0  0  0999 V2000
    4.8086   -2.3987   -0.4263 C   0  0  0  0  0  0  0  0  0  0  0  0
    3.6091   -1.5322   -0.2380 C   0  0  0  0  0  0  0  0  0  0  0  0
    2.6953   -1.2998   -1.2524 C   0  0  0  0  0  0  0  0  0  0  0  0
    1.5948   -0.4879   -1.0339 C   0  0  0  0  0  0  0  0  0  0  0  0
    1.4237    0.0810    0.1983 C   0  0  0  0  0  0  0  0  0  0  0  0
    0.2907    0.9416    0.4907 N   0  0  0  0  0  0  0  0  0  0  0  0
    0.1099    1.5379    1.6978 C   0  0  0  0  0  0  0  0  0  0  0  0
    1.1221    1.2375    2.6993 N   0  0  0  0  0  0  0  0  0  0  0  0
   -0.8711    2.3085    1.9516 N   0  0  0  0  0  0  0  0  0  0  0  0
   -1.7999    2.5265    0.8955 C   0  0  0  0  0  0  0  0  0  0  0  0
   -2.9242    3.4033    1.1571 N   0  0  0  0  0  0  0  0  0  0  0  0
   -1.7349    2.0353   -0.2268 N   0  0  0  0  0  0  0  0  0  0  0  0
   -0.6506    1.0796   -0.7477 C   0  0  2  0  0  0  0  0  0  0  0  0
   -1.4676   -0.2815   -0.6484 C   0  0  0  0  0  0  0  0  0  0  0  0
   -0.9638   -1.3889   -0.1073 C   0  0  0  0  0  0  0  0  0  0  0  0
   -1.7276   -2.5296   -0.0601 C   0  0  0  0  0  0  0  0  0  0  0  0
   -2.9990   -2.5320   -0.5650 C   0  0  0  0  0  0  0  0  0  0  0  0
   -3.5235   -1.3886   -1.1253 C   0  0  0  0  0  0  0  0  0  0  0  0
   -2.7127   -0.2284   -1.1598 C   0  0  0  0  0  0  0  0  0  0  0  0
    2.3075   -0.1380    1.1950 C   0  0  0  0  0  0  0  0  0  0  0  0
    3.4132   -0.9455    0.9978 C   0  0  0  0  0  0  0  0  0  0  0  0
  1  2  1  0
  2  3  2  0
  3  4  1  0
  4  5  2  0
  5  6  1  0
  6  7  1  0
  7  8  1  0
  7  9  2  0
  9 10  1  0
 10 11  1  0
 10 12  2  0
 12 13  1  0
 13 14  1  1
 14 15  2  0
 15 16  1  0
 16 17  2  0
 17 18  1  0
 18 19  2  0
  5 20  1  0
 20 21  2  0
 21  2  1  0
 13  6  1  0
 19 14  1  0
M  END
>  <zinc_id>  (137) 
ZINC000003076473

>  <ortholog_name>  (137) 
DRTS_PLAFK

>  <gene_name>  (137) 
DRTS_PLAFK

>  <affinity>  (137) 
8.11

>  <chembldocid>  (137) 
15522

>  <title>  (137) 
None

>  <reference.pubmed_id>  (137) 
10893311

>  <reference.doi>  (137) 
None

>  <reference.chembl_id>  (137) 
CHEMBL1133696

>  <reference.journal>  (137) 
J. Med. Chem.

>  <reference.year>  (137) 
2000

$$$$

     RDKit          3D

 21 23  0  0  0  0  0  0  0  0999 V2000
    5.5490    0.6167    0.1090 C   0  0  0  0  0  0  0  0  0  0  0  0
    4.0526    0.6462    0.1872 C   0  0  0  0  0  0  0  0  0  0  0  0
    3.2656    0.1655   -0.8369 C   0  0  0  0  0  0  0  0  0  0  0  0
    1.8915    0.1827   -0.7865 C   0  0  0  0  0  0  0  0  0  0  0  0
    1.2194    0.6810    0.2898 C   0  0  0  0  0  0  0  0  0  0  0  0
   -0.1686    0.7681    0.4905 N   0  0  0  0  0  0  0  0  0  0  0  0
   -0.9018    1.8294    0.0272 C   0  0  0  0  0  0  0  0  0  0  0  0
   -0.3183    2.8126   -0.8145 N   0  0  0  0  0  0  0  0  0  0  0  0
   -2.1154    1.9159    0.3664 N   0  0  0  0  0  0  0  0  0  0  0  0
   -2.7956    1.0126    1.1716 C   0  0  0  0  0  0  0  0  0  0  0  0
   -4.1621    1.2573    1.4807 N   0  0  0  0  0  0  0  0  0  0  0  0
   -2.2225    0.0501    1.5883 N   0  0  0  0  0  0  0  0  0  0  0  0
   -0.7339   -0.3752    1.3382 C   0  0  1  0  0  0  0  0  0  0  0  0
   -1.0682   -1.4251    0.2002 C   0  0  0  0  0  0  0  0  0  0  0  0
   -0.3303   -1.4163   -0.9060 C   0  0  0  0  0  0  0  0  0  0  0  0
   -0.5646   -2.3178   -1.9576 C   0  0  0  0  0  0  0  0  0  0  0  0
   -1.5904   -3.2174   -1.8049 C   0  0  0  0  0  0  0  0  0  0  0  0
   -2.3351   -3.2054   -0.6559 C   0  0  0  0  0  0  0  0  0  0  0  0
   -2.0853   -2.3076    0.3663 C   0  0  0  0  0  0  0  0  0  0  0  0
    2.0197    1.1716    1.3352 C   0  0  0  0  0  0  0  0  0  0  0  0
    3.3940    1.1553    1.2867 C   0  0  0  0  0  0  0  0  0  0  0  0
  1  2  1  0
  2  3  2  0
  3  4  1  0
  4  5  2  0
  5  6  1  0
  6  7  1  0
  7  8  1  0
  7  9  2  0
  9 10  1  0
 10 11  1  0
 10 12  2  0
 12 13  1  0
 13 14  1  6
 14 15  2  0
 15 16  1  0
 16 17  2  0
 17 18  1  0
 18 19  2  0
  5 20  1  0
 20 21  2  0
 21  2  1  0
 13  6  1  0
 19 14  1  0
M  END
>  <zinc_id>  (138) 
ZINC000003076474

>  <ortholog_name>  (138) 
DRTS_PLAFK

>  <gene_name>  (138) 
DRTS_PLAFK

>  <affinity>  (138) 
6.77

>  <chembldocid>  (138) 
15522

>  <title>  (138) 
None

>  <reference.pubmed_id>  (138) 
10893311

>  <reference.doi>  (138) 
None

>  <reference.chembl_id>  (138) 
CHEMBL1133696

>  <reference.journal>  (138) 
J. Med. Chem.

>  <reference.year>  (138) 
2000

$$$$

     RDKit          3D

 21 23  0  0  0  0  0  0  0  0999 V2000
    5.5490    0.6167    0.1090 C   0  0  0  0  0  0  0  0  0  0  0  0
    4.0526    0.6462    0.1872 C   0  0  0  0  0  0  0  0  0  0  0  0
    3.2656    0.1655   -0.8369 C   0  0  0  0  0  0  0  0  0  0  0  0
    1.8915    0.1827   -0.7865 C   0  0  0  0  0  0  0  0  0  0  0  0
    1.2194    0.6810    0.2898 C   0  0  0  0  0  0  0  0  0  0  0  0
   -0.1686    0.7681    0.4905 N   0  0  0  0  0  0  0  0  0  0  0  0
   -0.9018    1.8294    0.0272 C   0  0  0  0  0  0  0  0  0  0  0  0
   -0.3183    2.8126   -0.8145 N   0  0  0  0  0  0  0  0  0  0  0  0
   -2.1154    1.9159    0.3664 N   0  0  0  0  0  0  0  0  0  0  0  0
   -2.7956    1.0126    1.1716 C   0  0  0  0  0  0  0  0  0  0  0  0
   -4.1621    1.2573    1.4807 N   0  0  0  0  0  0  0  0  0  0  0  0
   -2.2225    0.0501    1.5883 N   0  0  0  0  0  0  0  0  0  0  0  0
   -0.7339   -0.3752    1.3382 C   0  0  1  0  0  0  0  0  0  0  0  0
   -1.0682   -1.4251    0.2002 C   0  0  0  0  0  0  0  0  0  0  0  0
   -0.3303   -1.4163   -0.9060 C   0  0  0  0  0  0  0  0  0  0  0  0
   -0.5646   -2.3178   -1.9576 C   0  0  0  0  0  0  0  0  0  0  0  0
   -1.5904   -3.2174   -1.8049 C   0  0  0  0  0  0  0  0  0  0  0  0
   -2.3351   -3.2054   -0.6559 C   0  0  0  0  0  0  0  0  0  0  0  0
   -2.0853   -2.3076    0.3663 C   0  0  0  0  0  0  0  0  0  0  0  0
    2.0197    1.1716    1.3352 C   0  0  0  0  0  0  0  0  0  0  0  0
    3.3940    1.1553    1.2867 C   0  0  0  0  0  0  0  0  0  0  0  0
  1  2  1  0
  2  3  2  0
  3  4  1  0
  4  5  2  0
  5  6  1  0
  6  7  1  0
  7  8  1  0
  7  9  2  0
  9 10  1  0
 10 11  1  0
 10 12  2  0
 12 13  1  0
 13 14  1  6
 14 15  2  0
 15 16  1  0
 16 17  2  0
 17 18  1  0
 18 19  2  0
  5 20  1  0
 20 21  2  0
 21  2  1  0
 13  6  1  0
 19 14  1  0
M  END
>  <zinc_id>  (139) 
ZINC000003076474

>  <ortholog_name>  (139) 
DRTS_PLAFK

>  <gene_name>  (139) 
DRTS_PLAFK

>  <affinity>  (139) 
8.11

>  <chembldocid>  (139) 
15522

>  <title>  (139) 
None

>  <reference.pubmed_id>  (139) 
10893311

>  <reference.doi>  (139) 
None

>  <reference.chembl_id>  (139) 
CHEMBL1133696

>  <reference.journal>  (139) 
J. Med. Chem.

>  <reference.year>  (139) 
2000

$$$$

     RDKit          3D

 25 26  0  0  0  0  0  0  0  0999 V2000
   -4.7222    2.2763   -1.1755 C   0  0  0  0  0  0  0  0  0  0  0  0
   -5.3616    2.3803   -0.0082 C   0  0  0  0  0  0  0  0  0  0  0  0
   -6.0104    1.1556    0.5341 C   0  0  0  0  0  0  0  0  0  0  0  0
   -5.8022    0.0632   -0.3883 N   0  0  0  0  0  0  0  0  0  0  0  0
   -4.5280   -0.4715   -0.6024 C   0  0  0  0  0  0  0  0  0  0  0  0
   -4.3399   -1.7136   -1.6312 S   0  0  0  0  0  0  0  0  0  0  0  0
   -3.3973    0.0444    0.0707 N   0  0  0  0  0  0  0  0  0  0  0  0
   -2.0997   -0.3675   -0.0316 N   0  0  0  0  0  0  0  0  0  0  0  0
   -1.5188   -1.5727    0.4158 C   0  0  0  0  0  0  0  0  0  0  0  0
   -2.2529   -2.3906    0.9884 O   0  0  0  0  0  0  0  0  0  0  0  0
   -0.0839   -1.8572    0.2152 C   0  0  0  0  0  0  0  0  0  0  0  0
    0.4347   -2.9477    0.8548 C   0  0  0  0  0  0  0  0  0  0  0  0
    1.7770   -3.2349    0.7143 C   0  0  0  0  0  0  0  0  0  0  0  0
    2.5323   -2.3832   -0.0857 C   0  0  0  0  0  0  0  0  0  0  0  0
    2.0238   -1.3230   -0.7078 N   0  0  0  0  0  0  0  0  0  0  0  0
    2.8016   -0.4675   -1.5657 C   0  0  0  0  0  0  0  0  0  0  0  0
    3.3385    0.7420   -0.8964 C   0  0  0  0  0  0  0  0  0  0  0  0
    2.4704    1.7897   -0.5756 C   0  0  0  0  0  0  0  0  0  0  0  0
    2.9369    2.9583    0.0275 C   0  0  0  0  0  0  0  0  0  0  0  0
    4.2749    3.1168    0.3299 C   0  0  0  0  0  0  0  0  0  0  0  0
    5.1280    2.0767    0.0125 C   0  0  0  0  0  0  0  0  0  0  0  0
    6.8265    2.3288    0.3961 Cl  0  0  0  0  0  0  0  0  0  0  0  0
    4.6647    0.9175   -0.5885 C   0  0  0  0  0  0  0  0  0  0  0  0
    0.7065   -1.0603   -0.5534 C   0  0  0  0  0  0  0  0  0  0  0  0
    0.2008   -0.0601   -1.1327 O   0  0  0  0  0  0  0  0  0  0  0  0
  1  2  2  0
  2  3  1  0
  3  4  1  0
  4  5  1  0
  5  6  2  0
  5  7  1  0
  7  8  1  0
  8  9  1  0
  9 10  2  0
  9 11  1  0
 11 12  2  0
 12 13  1  0
 13 14  2  0
 14 15  1  0
 15 16  1  0
 16 17  1  0
 17 18  2  0
 18 19  1  0
 19 20  2  0
 20 21  1  0
 21 22  1  0
 21 23  2  0
 15 24  1  0
 24 25  2  0
 24 11  1  0
 23 17  1  0
M  END
>  <zinc_id>  (140) 
ZINC000003133773

>  <ortholog_name>  (140) 
DRTS_PLAFK

>  <gene_name>  (140) 
DRTS_PLAFK

>  <affinity>  (140) 
5.00

>  <chembldocid>  (140) 
17071

>  <title>  (140) 
None

>  <reference.pubmed_id>  (140) 
12825927

>  <reference.doi>  (140) 
None

>  <reference.chembl_id>  (140) 
CHEMBL1145823

>  <reference.journal>  (140) 
J. Med. Chem.

>  <reference.year>  (140) 
2003

$$$$

     RDKit          3D

 25 26  0  0  0  0  0  0  0  0999 V2000
   -4.7222    2.2763   -1.1755 C   0  0  0  0  0  0  0  0  0  0  0  0
   -5.3616    2.3803   -0.0082 C   0  0  0  0  0  0  0  0  0  0  0  0
   -6.0104    1.1556    0.5341 C   0  0  0  0  0  0  0  0  0  0  0  0
   -5.8022    0.0632   -0.3883 N   0  0  0  0  0  0  0  0  0  0  0  0
   -4.5280   -0.4715   -0.6024 C   0  0  0  0  0  0  0  0  0  0  0  0
   -4.3399   -1.7136   -1.6312 S   0  0  0  0  0  0  0  0  0  0  0  0
   -3.3973    0.0444    0.0707 N   0  0  0  0  0  0  0  0  0  0  0  0
   -2.0997   -0.3675   -0.0316 N   0  0  0  0  0  0  0  0  0  0  0  0
   -1.5188   -1.5727    0.4158 C   0  0  0  0  0  0  0  0  0  0  0  0
   -2.2529   -2.3906    0.9884 O   0  0  0  0  0  0  0  0  0  0  0  0
   -0.0839   -1.8572    0.2152 C   0  0  0  0  0  0  0  0  0  0  0  0
    0.4347   -2.9477    0.8548 C   0  0  0  0  0  0  0  0  0  0  0  0
    1.7770   -3.2349    0.7143 C   0  0  0  0  0  0  0  0  0  0  0  0
    2.5323   -2.3832   -0.0857 C   0  0  0  0  0  0  0  0  0  0  0  0
    2.0238   -1.3230   -0.7078 N   0  0  0  0  0  0  0  0  0  0  0  0
    2.8016   -0.4675   -1.5657 C   0  0  0  0  0  0  0  0  0  0  0  0
    3.3385    0.7420   -0.8964 C   0  0  0  0  0  0  0  0  0  0  0  0
    2.4704    1.7897   -0.5756 C   0  0  0  0  0  0  0  0  0  0  0  0
    2.9369    2.9583    0.0275 C   0  0  0  0  0  0  0  0  0  0  0  0
    4.2749    3.1168    0.3299 C   0  0  0  0  0  0  0  0  0  0  0  0
    5.1280    2.0767    0.0125 C   0  0  0  0  0  0  0  0  0  0  0  0
    6.8265    2.3288    0.3961 Cl  0  0  0  0  0  0  0  0  0  0  0  0
    4.6647    0.9175   -0.5885 C   0  0  0  0  0  0  0  0  0  0  0  0
    0.7065   -1.0603   -0.5534 C   0  0  0  0  0  0  0  0  0  0  0  0
    0.2008   -0.0601   -1.1327 O   0  0  0  0  0  0  0  0  0  0  0  0
  1  2  2  0
  2  3  1  0
  3  4  1  0
  4  5  1  0
  5  6  2  0
  5  7  1  0
  7  8  1  0
  8  9  1  0
  9 10  2  0
  9 11  1  0
 11 12  2  0
 12 13  1  0
 13 14  2  0
 14 15  1  0
 15 16  1  0
 16 17  1  0
 17 18  2  0
 18 19  1  0
 19 20  2  0
 20 21  1  0
 21 22  1  0
 21 23  2  0
 15 24  1  0
 24 25  2  0
 24 11  1  0
 23 17  1  0
M  END
>  <zinc_id>  (141) 
ZINC000003133773

>  <ortholog_name>  (141) 
DRTS_PLAFK

>  <gene_name>  (141) 
DRTS_PLAFK

>  <affinity>  (141) 
5.77

>  <chembldocid>  (141) 
17071

>  <title>  (141) 
None

>  <reference.pubmed_id>  (141) 
12825927

>  <reference.doi>  (141) 
None

>  <reference.chembl_id>  (141) 
CHEMBL1145823

>  <reference.journal>  (141) 
J. Med. Chem.

>  <reference.year>  (141) 
2003

$$$$

     RDKit          3D

 25 26  0  0  0  0  0  0  0  0999 V2000
   -4.7222    2.2763   -1.1755 C   0  0  0  0  0  0  0  0  0  0  0  0
   -5.3616    2.3803   -0.0082 C   0  0  0  0  0  0  0  0  0  0  0  0
   -6.0104    1.1556    0.5341 C   0  0  0  0  0  0  0  0  0  0  0  0
   -5.8022    0.0632   -0.3883 N   0  0  0  0  0  0  0  0  0  0  0  0
   -4.5280   -0.4715   -0.6024 C   0  0  0  0  0  0  0  0  0  0  0  0
   -4.3399   -1.7136   -1.6312 S   0  0  0  0  0  0  0  0  0  0  0  0
   -3.3973    0.0444    0.0707 N   0  0  0  0  0  0  0  0  0  0  0  0
   -2.0997   -0.3675   -0.0316 N   0  0  0  0  0  0  0  0  0  0  0  0
   -1.5188   -1.5727    0.4158 C   0  0  0  0  0  0  0  0  0  0  0  0
   -2.2529   -2.3906    0.9884 O   0  0  0  0  0  0  0  0  0  0  0  0
   -0.0839   -1.8572    0.2152 C   0  0  0  0  0  0  0  0  0  0  0  0
    0.4347   -2.9477    0.8548 C   0  0  0  0  0  0  0  0  0  0  0  0
    1.7770   -3.2349    0.7143 C   0  0  0  0  0  0  0  0  0  0  0  0
    2.5323   -2.3832   -0.0857 C   0  0  0  0  0  0  0  0  0  0  0  0
    2.0238   -1.3230   -0.7078 N   0  0  0  0  0  0  0  0  0  0  0  0
    2.8016   -0.4675   -1.5657 C   0  0  0  0  0  0  0  0  0  0  0  0
    3.3385    0.7420   -0.8964 C   0  0  0  0  0  0  0  0  0  0  0  0
    2.4704    1.7897   -0.5756 C   0  0  0  0  0  0  0  0  0  0  0  0
    2.9369    2.9583    0.0275 C   0  0  0  0  0  0  0  0  0  0  0  0
    4.2749    3.1168    0.3299 C   0  0  0  0  0  0  0  0  0  0  0  0
    5.1280    2.0767    0.0125 C   0  0  0  0  0  0  0  0  0  0  0  0
    6.8265    2.3288    0.3961 Cl  0  0  0  0  0  0  0  0  0  0  0  0
    4.6647    0.9175   -0.5885 C   0  0  0  0  0  0  0  0  0  0  0  0
    0.7065   -1.0603   -0.5534 C   0  0  0  0  0  0  0  0  0  0  0  0
    0.2008   -0.0601   -1.1327 O   0  0  0  0  0  0  0  0  0  0  0  0
  1  2  2  0
  2  3  1  0
  3  4  1  0
  4  5  1  0
  5  6  2  0
  5  7  1  0
  7  8  1  0
  8  9  1  0
  9 10  2  0
  9 11  1  0
 11 12  2  0
 12 13  1  0
 13 14  2  0
 14 15  1  0
 15 16  1  0
 16 17  1  0
 17 18  2  0
 18 19  1  0
 19 20  2  0
 20 21  1  0
 21 22  1  0
 21 23  2  0
 15 24  1  0
 24 25  2  0
 24 11  1  0
 23 17  1  0
M  END
>  <zinc_id>  (142) 
ZINC000003133773

>  <ortholog_name>  (142) 
DRTS_PLAFK

>  <gene_name>  (142) 
DRTS_PLAFK

>  <affinity>  (142) 
6.39

>  <chembldocid>  (142) 
21047

>  <title>  (142) 
None

>  <reference.pubmed_id>  (142) 
15293997

>  <reference.doi>  (142) 
None

>  <reference.chembl_id>  (142) 
CHEMBL1138679

>  <reference.journal>  (142) 
J. Med. Chem.

>  <reference.year>  (142) 
2004

$$$$

     RDKit          3D

 19 20  0  0  0  0  0  0  0  0999 V2000
    5.8494   -0.2685    0.3685 C   0  0  0  0  0  0  0  0  0  0  0  0
    4.9100   -1.4234    0.0431 C   0  0  0  0  0  0  0  0  0  0  0  0
    4.2453   -1.8106    1.3542 C   0  0  0  0  0  0  0  0  0  0  0  0
    3.5214   -0.7575    1.9138 O   0  0  0  0  0  0  0  0  0  0  0  0
    2.4640   -0.1654    1.2380 C   0  0  0  0  0  0  0  0  0  0  0  0
    1.7216    0.8688    1.7387 C   0  0  0  0  0  0  0  0  0  0  0  0
    0.6793    1.4309    1.0386 C   0  0  0  0  0  0  0  0  0  0  0  0
    0.3633    0.9491   -0.2014 C   0  0  0  0  0  0  0  0  0  0  0  0
   -0.7404    1.4823   -1.0408 C   0  0  0  0  0  0  0  0  0  0  0  0
   -2.0228    0.7891   -0.7992 C   0  0  0  0  0  0  0  0  0  0  0  0
   -3.0379    1.3555   -0.0607 C   0  0  0  0  0  0  0  0  0  0  0  0
   -4.2155    0.6973    0.1510 N   0  0  0  0  0  0  0  0  0  0  0  0
   -4.3773   -0.5205   -0.3724 C   0  0  0  0  0  0  0  0  0  0  0  0
   -5.6210   -1.1955   -0.1388 N   0  0  0  0  0  0  0  0  0  0  0  0
   -3.4282   -1.1152   -1.0949 N   0  0  0  0  0  0  0  0  0  0  0  0
   -2.2464   -0.4680   -1.3141 C   0  0  0  0  0  0  0  0  0  0  0  0
   -1.2816   -1.1622   -2.0924 N   0  0  0  0  0  0  0  0  0  0  0  0
    1.0910   -0.0821   -0.7192 C   0  0  0  0  0  0  0  0  0  0  0  0
    2.1257   -0.6320   -0.0119 C   0  0  0  0  0  0  0  0  0  0  0  0
  1  2  1  0
  2  3  1  0
  3  4  1  0
  4  5  1  0
  5  6  2  0
  6  7  1  0
  7  8  2  0
  8  9  1  0
  9 10  1  0
 10 11  2  0
 11 12  1  0
 12 13  2  0
 13 14  1  0
 13 15  1  0
 15 16  2  0
 16 17  1  0
  8 18  1  0
 18 19  2  0
 19  5  1  0
 16 10  1  0
M  END
>  <zinc_id>  (143) 
ZINC000003157274

>  <ortholog_name>  (143) 
DRTS_PLAFK

>  <gene_name>  (143) 
DRTS_PLAFK

>  <affinity>  (143) 
5.96

>  <chembldocid>  (143) 
17636

>  <title>  (143) 
None

>  <reference.pubmed_id>  (143) 
14711307

>  <reference.doi>  (143) 
None

>  <reference.chembl_id>  (143) 
CHEMBL1148379

>  <reference.journal>  (143) 
J. Med. Chem.

>  <reference.year>  (143) 
2004

$$$$

     RDKit          3D

 19 20  0  0  0  0  0  0  0  0999 V2000
    5.8494   -0.2685    0.3685 C   0  0  0  0  0  0  0  0  0  0  0  0
    4.9100   -1.4234    0.0431 C   0  0  0  0  0  0  0  0  0  0  0  0
    4.2453   -1.8106    1.3542 C   0  0  0  0  0  0  0  0  0  0  0  0
    3.5214   -0.7575    1.9138 O   0  0  0  0  0  0  0  0  0  0  0  0
    2.4640   -0.1654    1.2380 C   0  0  0  0  0  0  0  0  0  0  0  0
    1.7216    0.8688    1.7387 C   0  0  0  0  0  0  0  0  0  0  0  0
    0.6793    1.4309    1.0386 C   0  0  0  0  0  0  0  0  0  0  0  0
    0.3633    0.9491   -0.2014 C   0  0  0  0  0  0  0  0  0  0  0  0
   -0.7404    1.4823   -1.0408 C   0  0  0  0  0  0  0  0  0  0  0  0
   -2.0228    0.7891   -0.7992 C   0  0  0  0  0  0  0  0  0  0  0  0
   -3.0379    1.3555   -0.0607 C   0  0  0  0  0  0  0  0  0  0  0  0
   -4.2155    0.6973    0.1510 N   0  0  0  0  0  0  0  0  0  0  0  0
   -4.3773   -0.5205   -0.3724 C   0  0  0  0  0  0  0  0  0  0  0  0
   -5.6210   -1.1955   -0.1388 N   0  0  0  0  0  0  0  0  0  0  0  0
   -3.4282   -1.1152   -1.0949 N   0  0  0  0  0  0  0  0  0  0  0  0
   -2.2464   -0.4680   -1.3141 C   0  0  0  0  0  0  0  0  0  0  0  0
   -1.2816   -1.1622   -2.0924 N   0  0  0  0  0  0  0  0  0  0  0  0
    1.0910   -0.0821   -0.7192 C   0  0  0  0  0  0  0  0  0  0  0  0
    2.1257   -0.6320   -0.0119 C   0  0  0  0  0  0  0  0  0  0  0  0
  1  2  1  0
  2  3  1  0
  3  4  1  0
  4  5  1  0
  5  6  2  0
  6  7  1  0
  7  8  2  0
  8  9  1  0
  9 10  1  0
 10 11  2  0
 11 12  1  0
 12 13  2  0
 13 14  1  0
 13 15  1  0
 15 16  2  0
 16 17  1  0
  8 18  1  0
 18 19  2  0
 19  5  1  0
 16 10  1  0
M  END
>  <zinc_id>  (144) 
ZINC000003157274

>  <ortholog_name>  (144) 
DRTS_PLAFK

>  <gene_name>  (144) 
DRTS_PLAFK

>  <affinity>  (144) 
7.82

>  <chembldocid>  (144) 
17636

>  <title>  (144) 
None

>  <reference.pubmed_id>  (144) 
14711307

>  <reference.doi>  (144) 
None

>  <reference.chembl_id>  (144) 
CHEMBL1148379

>  <reference.journal>  (144) 
J. Med. Chem.

>  <reference.year>  (144) 
2004

$$$$

     RDKit          3D

 19 20  0  0  0  0  0  0  0  0999 V2000
    5.8494   -0.2685    0.3685 C   0  0  0  0  0  0  0  0  0  0  0  0
    4.9100   -1.4234    0.0431 C   0  0  0  0  0  0  0  0  0  0  0  0
    4.2453   -1.8106    1.3542 C   0  0  0  0  0  0  0  0  0  0  0  0
    3.5214   -0.7575    1.9138 O   0  0  0  0  0  0  0  0  0  0  0  0
    2.4640   -0.1654    1.2380 C   0  0  0  0  0  0  0  0  0  0  0  0
    1.7216    0.8688    1.7387 C   0  0  0  0  0  0  0  0  0  0  0  0
    0.6793    1.4309    1.0386 C   0  0  0  0  0  0  0  0  0  0  0  0
    0.3633    0.9491   -0.2014 C   0  0  0  0  0  0  0  0  0  0  0  0
   -0.7404    1.4823   -1.0408 C   0  0  0  0  0  0  0  0  0  0  0  0
   -2.0228    0.7891   -0.7992 C   0  0  0  0  0  0  0  0  0  0  0  0
   -3.0379    1.3555   -0.0607 C   0  0  0  0  0  0  0  0  0  0  0  0
   -4.2155    0.6973    0.1510 N   0  0  0  0  0  0  0  0  0  0  0  0
   -4.3773   -0.5205   -0.3724 C   0  0  0  0  0  0  0  0  0  0  0  0
   -5.6210   -1.1955   -0.1388 N   0  0  0  0  0  0  0  0  0  0  0  0
   -3.4282   -1.1152   -1.0949 N   0  0  0  0  0  0  0  0  0  0  0  0
   -2.2464   -0.4680   -1.3141 C   0  0  0  0  0  0  0  0  0  0  0  0
   -1.2816   -1.1622   -2.0924 N   0  0  0  0  0  0  0  0  0  0  0  0
    1.0910   -0.0821   -0.7192 C   0  0  0  0  0  0  0  0  0  0  0  0
    2.1257   -0.6320   -0.0119 C   0  0  0  0  0  0  0  0  0  0  0  0
  1  2  1  0
  2  3  1  0
  3  4  1  0
  4  5  1  0
  5  6  2  0
  6  7  1  0
  7  8  2  0
  8  9  1  0
  9 10  1  0
 10 11  2  0
 11 12  1  0
 12 13  2  0
 13 14  1  0
 13 15  1  0
 15 16  2  0
 16 17  1  0
  8 18  1  0
 18 19  2  0
 19  5  1  0
 16 10  1  0
M  END
>  <zinc_id>  (145) 
ZINC000003157274

>  <ortholog_name>  (145) 
DRTS_PLAFK

>  <gene_name>  (145) 
DRTS_PLAFK

>  <affinity>  (145) 
5.82

>  <chembldocid>  (145) 
17636

>  <title>  (145) 
None

>  <reference.pubmed_id>  (145) 
14711307

>  <reference.doi>  (145) 
None

>  <reference.chembl_id>  (145) 
CHEMBL1148379

>  <reference.journal>  (145) 
J. Med. Chem.

>  <reference.year>  (145) 
2004

$$$$

     RDKit          3D

 19 20  0  0  0  0  0  0  0  0999 V2000
    5.8494   -0.2685    0.3685 C   0  0  0  0  0  0  0  0  0  0  0  0
    4.9100   -1.4234    0.0431 C   0  0  0  0  0  0  0  0  0  0  0  0
    4.2453   -1.8106    1.3542 C   0  0  0  0  0  0  0  0  0  0  0  0
    3.5214   -0.7575    1.9138 O   0  0  0  0  0  0  0  0  0  0  0  0
    2.4640   -0.1654    1.2380 C   0  0  0  0  0  0  0  0  0  0  0  0
    1.7216    0.8688    1.7387 C   0  0  0  0  0  0  0  0  0  0  0  0
    0.6793    1.4309    1.0386 C   0  0  0  0  0  0  0  0  0  0  0  0
    0.3633    0.9491   -0.2014 C   0  0  0  0  0  0  0  0  0  0  0  0
   -0.7404    1.4823   -1.0408 C   0  0  0  0  0  0  0  0  0  0  0  0
   -2.0228    0.7891   -0.7992 C   0  0  0  0  0  0  0  0  0  0  0  0
   -3.0379    1.3555   -0.0607 C   0  0  0  0  0  0  0  0  0  0  0  0
   -4.2155    0.6973    0.1510 N   0  0  0  0  0  0  0  0  0  0  0  0
   -4.3773   -0.5205   -0.3724 C   0  0  0  0  0  0  0  0  0  0  0  0
   -5.6210   -1.1955   -0.1388 N   0  0  0  0  0  0  0  0  0  0  0  0
   -3.4282   -1.1152   -1.0949 N   0  0  0  0  0  0  0  0  0  0  0  0
   -2.2464   -0.4680   -1.3141 C   0  0  0  0  0  0  0  0  0  0  0  0
   -1.2816   -1.1622   -2.0924 N   0  0  0  0  0  0  0  0  0  0  0  0
    1.0910   -0.0821   -0.7192 C   0  0  0  0  0  0  0  0  0  0  0  0
    2.1257   -0.6320   -0.0119 C   0  0  0  0  0  0  0  0  0  0  0  0
  1  2  1  0
  2  3  1  0
  3  4  1  0
  4  5  1  0
  5  6  2  0
  6  7  1  0
  7  8  2  0
  8  9  1  0
  9 10  1  0
 10 11  2  0
 11 12  1  0
 12 13  2  0
 13 14  1  0
 13 15  1  0
 15 16  2  0
 16 17  1  0
  8 18  1  0
 18 19  2  0
 19  5  1  0
 16 10  1  0
M  END
>  <zinc_id>  (146) 
ZINC000003157274

>  <ortholog_name>  (146) 
DRTS_PLAFK

>  <gene_name>  (146) 
DRTS_PLAFK

>  <affinity>  (146) 
6.67

>  <chembldocid>  (146) 
17636

>  <title>  (146) 
None

>  <reference.pubmed_id>  (146) 
14711307

>  <reference.doi>  (146) 
None

>  <reference.chembl_id>  (146) 
CHEMBL1148379

>  <reference.journal>  (146) 
J. Med. Chem.

>  <reference.year>  (146) 
2004

$$$$

     RDKit          3D

 24 25  0  0  0  0  0  0  0  0999 V2000
   -1.8658    1.4532    0.6277 C   0  0  0  0  0  0  0  0  0  0  0  0
   -2.3112    0.6608   -0.6070 C   0  0  0  0  0  0  0  0  0  0  0  0
   -1.1883    0.6332   -1.6240 C   0  0  0  0  0  0  0  0  0  0  0  0
   -3.4859    1.3096   -1.1127 N   0  0  0  0  0  0  0  0  0  0  0  0
   -4.6292    0.7299   -1.1549 C   0  0  0  0  0  0  0  0  0  0  0  0
   -5.7177    1.5099   -1.6900 N   0  0  0  0  0  0  0  0  0  0  0  0
   -4.8525   -0.5994   -0.7114 N   0  0  0  0  0  0  0  0  0  0  0  0
   -3.8387   -1.2487   -0.2417 C   0  0  0  0  0  0  0  0  0  0  0  0
   -4.0026   -2.6056    0.2254 N   0  0  0  0  0  0  0  0  0  0  0  0
   -2.5332   -0.6949   -0.1534 N   0  0  0  0  0  0  0  0  0  0  0  0
   -1.5275   -1.4534    0.3550 O   0  0  0  0  0  0  0  0  0  0  0  0
   -1.2716   -1.1345    1.6870 C   0  0  0  0  0  0  0  0  0  0  0  0
   -0.1296   -2.0542    2.1270 C   0  0  0  0  0  0  0  0  0  0  0  0
    1.0628   -1.7694    1.2367 C   0  0  0  0  0  0  0  0  0  0  0  0
    1.4370   -0.4306    1.3751 O   0  0  0  0  0  0  0  0  0  0  0  0
    2.5310    0.0234    0.6226 C   0  0  0  0  0  0  0  0  0  0  0  0
    3.2272   -0.8075   -0.2307 C   0  0  0  0  0  0  0  0  0  0  0  0
    4.3042   -0.3248   -0.9595 C   0  0  0  0  0  0  0  0  0  0  0  0
    5.2086   -1.3592   -2.0529 Cl  0  0  0  0  0  0  0  0  0  0  0  0
    4.6709    0.9989   -0.8200 C   0  0  0  0  0  0  0  0  0  0  0  0
    6.0307    1.5828   -1.7487 Cl  0  0  0  0  0  0  0  0  0  0  0  0
    3.9798    1.8382    0.0319 C   0  0  0  0  0  0  0  0  0  0  0  0
    2.9024    1.3627    0.7634 C   0  0  0  0  0  0  0  0  0  0  0  0
    1.9993    2.3798    1.8500 Cl  0  0  0  0  0  0  0  0  0  0  0  0
  1  2  1  0
  2  3  1  0
  2  4  1  0
  4  5  2  0
  5  6  1  0
  5  7  1  0
  7  8  2  0
  8  9  1  0
  8 10  1  0
 10 11  1  0
 11 12  1  0
 12 13  1  0
 13 14  1  0
 14 15  1  0
 15 16  1  0
 16 17  2  0
 17 18  1  0
 18 19  1  0
 18 20  2  0
 20 21  1  0
 20 22  1  0
 22 23  2  0
 23 24  1  0
 10  2  1  0
 23 16  1  0
M  END
>  <zinc_id>  (147) 
ZINC000003581056

>  <ortholog_name>  (147) 
DRTS_PLAFK

>  <gene_name>  (147) 
DRTS_PLAFK

>  <affinity>  (147) 
8.96

>  <chembldocid>  (147) 
21047

>  <title>  (147) 
None

>  <reference.pubmed_id>  (147) 
15293997

>  <reference.doi>  (147) 
None

>  <reference.chembl_id>  (147) 
CHEMBL1138679

>  <reference.journal>  (147) 
J. Med. Chem.

>  <reference.year>  (147) 
2004

$$$$

     RDKit          3D

 21 22  0  0  0  0  0  0  0  0999 V2000
   -5.9000   -0.3022   -0.4585 N   0  0  0  0  0  0  0  0  0  0  0  0
   -4.5773   -0.5070   -0.9058 C   0  0  0  0  0  0  0  0  0  0  0  0
   -4.3494   -0.8392   -2.1156 N   0  0  0  0  0  0  0  0  0  0  0  0
   -5.4129   -0.9929   -2.9683 O   0  0  0  0  0  0  0  0  0  0  0  0
   -3.4744   -0.3393    0.0111 C   0  0  0  0  0  0  0  0  0  0  0  0
   -2.1672   -0.5288   -0.3924 C   0  0  0  0  0  0  0  0  0  0  0  0
   -1.0786   -0.3827    0.4402 C   0  0  0  0  0  0  0  0  0  0  0  0
   -1.2798   -0.0268    1.7587 C   0  0  0  0  0  0  0  0  0  0  0  0
   -0.1245    0.1425    2.7026 C   0  0  0  0  0  0  0  0  0  0  0  0
    1.0918   -0.1417    1.9663 N   0  0  0  0  0  0  0  0  0  0  0  0
    1.6244    0.7964    1.0590 C   0  0  0  0  0  0  0  0  0  0  0  0
    1.0219    1.8843    0.9019 O   0  0  0  0  0  0  0  0  0  0  0  0
    2.8627    0.5254    0.2998 C   0  0  0  0  0  0  0  0  0  0  0  0
    3.3753    1.4384   -0.5652 C   0  0  0  0  0  0  0  0  0  0  0  0
    4.5455    1.1600   -1.2720 C   0  0  0  0  0  0  0  0  0  0  0  0
    5.2118   -0.0391   -1.1158 C   0  0  0  0  0  0  0  0  0  0  0  0
    6.6659   -0.3810   -1.9989 Cl  0  0  0  0  0  0  0  0  0  0  0  0
    4.6836   -0.9793   -0.2242 C   0  0  0  0  0  0  0  0  0  0  0  0
    3.5167   -0.6719    0.4646 C   0  0  0  0  0  0  0  0  0  0  0  0
   -2.5764    0.1670    2.1817 C   0  0  0  0  0  0  0  0  0  0  0  0
   -3.6590    0.0180    1.3397 C   0  0  0  0  0  0  0  0  0  0  0  0
  1  2  1  0
  2  3  2  0
  3  4  1  0
  2  5  1  0
  5  6  2  0
  6  7  1  0
  7  8  2  0
  8  9  1  0
  9 10  1  0
 10 11  1  0
 11 12  2  0
 11 13  1  0
 13 14  2  0
 14 15  1  0
 15 16  2  0
 16 17  1  0
 16 18  1  0
 18 19  2  0
  8 20  1  0
 20 21  2  0
 21  5  1  0
 19 13  1  0
M  END
>  <zinc_id>  (148) 
ZINC000004322438

>  <ortholog_name>  (148) 
DRTS_PLAFK

>  <gene_name>  (148) 
DRTS_PLAFK

>  <affinity>  (148) 
5.82

>  <chembldocid>  (148) 
21047

>  <title>  (148) 
None

>  <reference.pubmed_id>  (148) 
15293997

>  <reference.doi>  (148) 
None

>  <reference.chembl_id>  (148) 
CHEMBL1138679

>  <reference.journal>  (148) 
J. Med. Chem.

>  <reference.year>  (148) 
2004

$$$$

     RDKit          3D

 22 23  0  0  0  0  0  0  0  0999 V2000
    5.1615    0.5350   -0.2666 N   0  0  0  0  0  0  0  0  0  0  0  0
    3.9367    1.2473   -0.0350 C   0  0  0  0  0  0  0  0  0  0  0  0
    3.9976    2.5001    0.2132 N   0  0  0  0  0  0  0  0  0  0  0  0
    5.1787    3.1994    0.2694 O   0  0  0  0  0  0  0  0  0  0  0  0
    2.6506    0.5769   -0.0778 C   0  0  0  0  0  0  0  0  0  0  0  0
    1.5210    1.2987    0.1488 C   0  0  0  0  0  0  0  0  0  0  0  0
    0.2868    0.6788    0.1123 C   0  0  0  0  0  0  0  0  0  0  0  0
    0.1527   -0.6844   -0.1530 C   0  0  0  0  0  0  0  0  0  0  0  0
   -1.0935   -1.2984   -0.1875 O   0  0  0  0  0  0  0  0  0  0  0  0
   -2.2102   -0.5206    0.0494 C   0  0  0  0  0  0  0  0  0  0  0  0
   -2.6696   -0.3769    1.3295 C   0  0  0  0  0  0  0  0  0  0  0  0
   -3.7834    0.3947    1.5935 C   0  0  0  0  0  0  0  0  0  0  0  0
   -4.3754    0.5842    3.2141 Cl  0  0  0  0  0  0  0  0  0  0  0  0
   -4.4195    1.0175    0.5230 C   0  0  0  0  0  0  0  0  0  0  0  0
   -3.9865    0.8954   -0.7730 C   0  0  0  0  0  0  0  0  0  0  0  0
   -4.8142    1.6940   -2.0859 Cl  0  0  0  0  0  0  0  0  0  0  0  0
   -2.8613    0.1075   -0.9833 C   0  0  0  0  0  0  0  0  0  0  0  0
    1.2981   -1.4011   -0.3797 C   0  0  0  0  0  0  0  0  0  0  0  0
    1.1806   -2.7979   -0.6529 N   0  0  0  0  0  4  0  0  0  0  0  0
    0.1744   -3.1996   -1.2429 O   0  0  0  0  0  0  0  0  0  0  0  0
    2.1524   -3.6802   -0.2754 O   0  0  0  0  0  1  0  0  0  0  0  0
    2.5224   -0.7702   -0.3403 C   0  0  0  0  0  0  0  0  0  0  0  0
  1  2  1  0
  2  3  2  0
  3  4  1  0
  2  5  1  0
  5  6  2  0
  6  7  1  0
  7  8  2  0
  8  9  1  0
  9 10  1  0
 10 11  2  0
 11 12  1  0
 12 13  1  0
 12 14  2  0
 14 15  1  0
 15 16  1  0
 15 17  2  0
  8 18  1  0
 18 19  1  0
 19 20  2  0
 19 21  1  0
 18 22  2  0
 22  5  1  0
 17 10  1  0
M  CHG  2  19   1  21  -1
M  END
>  <zinc_id>  (149) 
ZINC000004394094

>  <ortholog_name>  (149) 
DRTS_PLAFK

>  <gene_name>  (149) 
DRTS_PLAFK

>  <affinity>  (149) 
5.77

>  <chembldocid>  (149) 
21047

>  <title>  (149) 
None

>  <reference.pubmed_id>  (149) 
15293997

>  <reference.doi>  (149) 
None

>  <reference.chembl_id>  (149) 
CHEMBL1138679

>  <reference.journal>  (149) 
J. Med. Chem.

>  <reference.year>  (149) 
2004

$$$$

     RDKit          3D

 22 23  0  0  0  0  0  0  0  0999 V2000
    5.1615    0.5350   -0.2666 N   0  0  0  0  0  0  0  0  0  0  0  0
    3.9367    1.2473   -0.0350 C   0  0  0  0  0  0  0  0  0  0  0  0
    3.9976    2.5001    0.2132 N   0  0  0  0  0  0  0  0  0  0  0  0
    5.1787    3.1994    0.2694 O   0  0  0  0  0  0  0  0  0  0  0  0
    2.6506    0.5769   -0.0778 C   0  0  0  0  0  0  0  0  0  0  0  0
    1.5210    1.2987    0.1488 C   0  0  0  0  0  0  0  0  0  0  0  0
    0.2868    0.6788    0.1123 C   0  0  0  0  0  0  0  0  0  0  0  0
    0.1527   -0.6844   -0.1530 C   0  0  0  0  0  0  0  0  0  0  0  0
   -1.0935   -1.2984   -0.1875 O   0  0  0  0  0  0  0  0  0  0  0  0
   -2.2102   -0.5206    0.0494 C   0  0  0  0  0  0  0  0  0  0  0  0
   -2.6696   -0.3769    1.3295 C   0  0  0  0  0  0  0  0  0  0  0  0
   -3.7834    0.3947    1.5935 C   0  0  0  0  0  0  0  0  0  0  0  0
   -4.3754    0.5842    3.2141 Cl  0  0  0  0  0  0  0  0  0  0  0  0
   -4.4195    1.0175    0.5230 C   0  0  0  0  0  0  0  0  0  0  0  0
   -3.9865    0.8954   -0.7730 C   0  0  0  0  0  0  0  0  0  0  0  0
   -4.8142    1.6940   -2.0859 Cl  0  0  0  0  0  0  0  0  0  0  0  0
   -2.8613    0.1075   -0.9833 C   0  0  0  0  0  0  0  0  0  0  0  0
    1.2981   -1.4011   -0.3797 C   0  0  0  0  0  0  0  0  0  0  0  0
    1.1806   -2.7979   -0.6529 N   0  0  0  0  0  4  0  0  0  0  0  0
    0.1744   -3.1996   -1.2429 O   0  0  0  0  0  0  0  0  0  0  0  0
    2.1524   -3.6802   -0.2754 O   0  0  0  0  0  1  0  0  0  0  0  0
    2.5224   -0.7702   -0.3403 C   0  0  0  0  0  0  0  0  0  0  0  0
  1  2  1  0
  2  3  2  0
  3  4  1  0
  2  5  1  0
  5  6  2  0
  6  7  1  0
  7  8  2  0
  8  9  1  0
  9 10  1  0
 10 11  2  0
 11 12  1  0
 12 13  1  0
 12 14  2  0
 14 15  1  0
 15 16  1  0
 15 17  2  0
  8 18  1  0
 18 19  1  0
 19 20  2  0
 19 21  1  0
 18 22  2  0
 22  5  1  0
 17 10  1  0
M  CHG  2  19   1  21  -1
M  END
>  <zinc_id>  (150) 
ZINC000004394094

>  <ortholog_name>  (150) 
DRTS_PLAFK

>  <gene_name>  (150) 
DRTS_PLAFK

>  <affinity>  (150) 
5.62

>  <chembldocid>  (150) 
17071

>  <title>  (150) 
None

>  <reference.pubmed_id>  (150) 
12825927

>  <reference.doi>  (150) 
None

>  <reference.chembl_id>  (150) 
CHEMBL1145823

>  <reference.journal>  (150) 
J. Med. Chem.

>  <reference.year>  (150) 
2003

$$$$

     RDKit          3D

 22 23  0  0  0  0  0  0  0  0999 V2000
    5.1615    0.5350   -0.2666 N   0  0  0  0  0  0  0  0  0  0  0  0
    3.9367    1.2473   -0.0350 C   0  0  0  0  0  0  0  0  0  0  0  0
    3.9976    2.5001    0.2132 N   0  0  0  0  0  0  0  0  0  0  0  0
    5.1787    3.1994    0.2694 O   0  0  0  0  0  0  0  0  0  0  0  0
    2.6506    0.5769   -0.0778 C   0  0  0  0  0  0  0  0  0  0  0  0
    1.5210    1.2987    0.1488 C   0  0  0  0  0  0  0  0  0  0  0  0
    0.2868    0.6788    0.1123 C   0  0  0  0  0  0  0  0  0  0  0  0
    0.1527   -0.6844   -0.1530 C   0  0  0  0  0  0  0  0  0  0  0  0
   -1.0935   -1.2984   -0.1875 O   0  0  0  0  0  0  0  0  0  0  0  0
   -2.2102   -0.5206    0.0494 C   0  0  0  0  0  0  0  0  0  0  0  0
   -2.6696   -0.3769    1.3295 C   0  0  0  0  0  0  0  0  0  0  0  0
   -3.7834    0.3947    1.5935 C   0  0  0  0  0  0  0  0  0  0  0  0
   -4.3754    0.5842    3.2141 Cl  0  0  0  0  0  0  0  0  0  0  0  0
   -4.4195    1.0175    0.5230 C   0  0  0  0  0  0  0  0  0  0  0  0
   -3.9865    0.8954   -0.7730 C   0  0  0  0  0  0  0  0  0  0  0  0
   -4.8142    1.6940   -2.0859 Cl  0  0  0  0  0  0  0  0  0  0  0  0
   -2.8613    0.1075   -0.9833 C   0  0  0  0  0  0  0  0  0  0  0  0
    1.2981   -1.4011   -0.3797 C   0  0  0  0  0  0  0  0  0  0  0  0
    1.1806   -2.7979   -0.6529 N   0  0  0  0  0  4  0  0  0  0  0  0
    0.1744   -3.1996   -1.2429 O   0  0  0  0  0  0  0  0  0  0  0  0
    2.1524   -3.6802   -0.2754 O   0  0  0  0  0  1  0  0  0  0  0  0
    2.5224   -0.7702   -0.3403 C   0  0  0  0  0  0  0  0  0  0  0  0
  1  2  1  0
  2  3  2  0
  3  4  1  0
  2  5  1  0
  5  6  2  0
  6  7  1  0
  7  8  2  0
  8  9  1  0
  9 10  1  0
 10 11  2  0
 11 12  1  0
 12 13  1  0
 12 14  2  0
 14 15  1  0
 15 16  1  0
 15 17  2  0
  8 18  1  0
 18 19  1  0
 19 20  2  0
 19 21  1  0
 18 22  2  0
 22  5  1  0
 17 10  1  0
M  CHG  2  19   1  21  -1
M  END
>  <zinc_id>  (151) 
ZINC000004394094

>  <ortholog_name>  (151) 
DRTS_PLAFK

>  <gene_name>  (151) 
DRTS_PLAFK

>  <affinity>  (151) 
5.38

>  <chembldocid>  (151) 
17071

>  <title>  (151) 
None

>  <reference.pubmed_id>  (151) 
12825927

>  <reference.doi>  (151) 
None

>  <reference.chembl_id>  (151) 
CHEMBL1145823

>  <reference.journal>  (151) 
J. Med. Chem.

>  <reference.year>  (151) 
2003

$$$$

     RDKit          3D

 22 23  0  0  0  0  0  0  0  0999 V2000
    5.1615    0.5350   -0.2666 N   0  0  0  0  0  0  0  0  0  0  0  0
    3.9367    1.2473   -0.0350 C   0  0  0  0  0  0  0  0  0  0  0  0
    3.9976    2.5001    0.2132 N   0  0  0  0  0  0  0  0  0  0  0  0
    5.1787    3.1994    0.2694 O   0  0  0  0  0  0  0  0  0  0  0  0
    2.6506    0.5769   -0.0778 C   0  0  0  0  0  0  0  0  0  0  0  0
    1.5210    1.2987    0.1488 C   0  0  0  0  0  0  0  0  0  0  0  0
    0.2868    0.6788    0.1123 C   0  0  0  0  0  0  0  0  0  0  0  0
    0.1527   -0.6844   -0.1530 C   0  0  0  0  0  0  0  0  0  0  0  0
   -1.0935   -1.2984   -0.1875 O   0  0  0  0  0  0  0  0  0  0  0  0
   -2.2102   -0.5206    0.0494 C   0  0  0  0  0  0  0  0  0  0  0  0
   -2.6696   -0.3769    1.3295 C   0  0  0  0  0  0  0  0  0  0  0  0
   -3.7834    0.3947    1.5935 C   0  0  0  0  0  0  0  0  0  0  0  0
   -4.3754    0.5842    3.2141 Cl  0  0  0  0  0  0  0  0  0  0  0  0
   -4.4195    1.0175    0.5230 C   0  0  0  0  0  0  0  0  0  0  0  0
   -3.9865    0.8954   -0.7730 C   0  0  0  0  0  0  0  0  0  0  0  0
   -4.8142    1.6940   -2.0859 Cl  0  0  0  0  0  0  0  0  0  0  0  0
   -2.8613    0.1075   -0.9833 C   0  0  0  0  0  0  0  0  0  0  0  0
    1.2981   -1.4011   -0.3797 C   0  0  0  0  0  0  0  0  0  0  0  0
    1.1806   -2.7979   -0.6529 N   0  0  0  0  0  4  0  0  0  0  0  0
    0.1744   -3.1996   -1.2429 O   0  0  0  0  0  0  0  0  0  0  0  0
    2.1524   -3.6802   -0.2754 O   0  0  0  0  0  1  0  0  0  0  0  0
    2.5224   -0.7702   -0.3403 C   0  0  0  0  0  0  0  0  0  0  0  0
  1  2  1  0
  2  3  2  0
  3  4  1  0
  2  5  1  0
  5  6  2  0
  6  7  1  0
  7  8  2  0
  8  9  1  0
  9 10  1  0
 10 11  2  0
 11 12  1  0
 12 13  1  0
 12 14  2  0
 14 15  1  0
 15 16  1  0
 15 17  2  0
  8 18  1  0
 18 19  1  0
 19 20  2  0
 19 21  1  0
 18 22  2  0
 22  5  1  0
 17 10  1  0
M  CHG  2  19   1  21  -1
M  END
>  <zinc_id>  (152) 
ZINC000004394094

>  <ortholog_name>  (152) 
DRTS_PLAFK

>  <gene_name>  (152) 
DRTS_PLAFK

>  <affinity>  (152) 
5.01

>  <chembldocid>  (152) 
17071

>  <title>  (152) 
None

>  <reference.pubmed_id>  (152) 
12825927

>  <reference.doi>  (152) 
None

>  <reference.chembl_id>  (152) 
CHEMBL1145823

>  <reference.journal>  (152) 
J. Med. Chem.

>  <reference.year>  (152) 
2003

$$$$

     RDKit          3D

 19 20  0  0  0  0  0  0  0  0999 V2000
    4.8191    0.6820    1.2894 N   0  0  0  0  0  0  0  0  0  0  0  0
    4.1309   -0.3074    0.5398 C   0  0  0  0  0  0  0  0  0  0  0  0
    4.6554   -1.4415    0.2047 N   0  0  0  0  0  0  0  0  0  0  0  0
    3.9234   -2.3538   -0.5253 O   0  0  0  0  0  0  0  0  0  0  0  0
    2.7724   -0.0496    0.1214 C   0  0  0  0  0  0  0  0  0  0  0  0
    2.1627    1.1401    0.4492 C   0  0  0  0  0  0  0  0  0  0  0  0
    0.8659    1.4163    0.0643 C   0  0  0  0  0  0  0  0  0  0  0  0
    0.1092    0.5194   -0.6683 C   0  0  0  0  0  0  0  0  0  0  0  0
   -1.1890    0.7505   -1.0756 O   0  0  0  0  0  0  0  0  0  0  0  0
   -2.3102    0.4254   -0.3566 C   0  0  0  0  0  0  0  0  0  0  0  0
   -2.8745   -0.8159   -0.5432 C   0  0  0  0  0  0  0  0  0  0  0  0
   -2.2194   -2.0002   -1.6630 Cl  0  0  0  0  0  0  0  0  0  0  0  0
   -3.9931   -1.1333    0.1776 C   0  0  0  0  0  0  0  0  0  0  0  0
   -4.5531   -0.2854    1.0510 N   0  0  0  0  0  0  0  0  0  0  0  0
   -4.0189    0.9203    1.2433 C   0  0  0  0  0  0  0  0  0  0  0  0
   -2.8997    1.2981    0.5527 C   0  0  0  0  0  0  0  0  0  0  0  0
   -2.1330    2.8609    0.7434 Cl  0  0  0  0  0  0  0  0  0  0  0  0
    0.7284   -0.6705   -0.9925 C   0  0  0  0  0  0  0  0  0  0  0  0
    2.0236   -0.9555   -0.6123 C   0  0  0  0  0  0  0  0  0  0  0  0
  1  2  1  0
  2  3  2  0
  3  4  1  0
  2  5  1  0
  5  6  2  0
  6  7  1  0
  7  8  2  0
  8  9  1  0
  9 10  1  0
 10 11  2  0
 11 12  1  0
 11 13  1  0
 13 14  2  0
 14 15  1  0
 15 16  2  0
 16 17  1  0
  8 18  1  0
 18 19  2  0
 19  5  1  0
 16 10  1  0
M  END
>  <zinc_id>  (153) 
ZINC000004394823

>  <ortholog_name>  (153) 
DRTS_PLAFK

>  <gene_name>  (153) 
DRTS_PLAFK

>  <affinity>  (153) 
5.21

>  <chembldocid>  (153) 
17071

>  <title>  (153) 
None

>  <reference.pubmed_id>  (153) 
12825927

>  <reference.doi>  (153) 
None

>  <reference.chembl_id>  (153) 
CHEMBL1145823

>  <reference.journal>  (153) 
J. Med. Chem.

>  <reference.year>  (153) 
2003

$$$$

     RDKit          3D

 19 20  0  0  0  0  0  0  0  0999 V2000
    4.8191    0.6820    1.2894 N   0  0  0  0  0  0  0  0  0  0  0  0
    4.1309   -0.3074    0.5398 C   0  0  0  0  0  0  0  0  0  0  0  0
    4.6554   -1.4415    0.2047 N   0  0  0  0  0  0  0  0  0  0  0  0
    3.9234   -2.3538   -0.5253 O   0  0  0  0  0  0  0  0  0  0  0  0
    2.7724   -0.0496    0.1214 C   0  0  0  0  0  0  0  0  0  0  0  0
    2.1627    1.1401    0.4492 C   0  0  0  0  0  0  0  0  0  0  0  0
    0.8659    1.4163    0.0643 C   0  0  0  0  0  0  0  0  0  0  0  0
    0.1092    0.5194   -0.6683 C   0  0  0  0  0  0  0  0  0  0  0  0
   -1.1890    0.7505   -1.0756 O   0  0  0  0  0  0  0  0  0  0  0  0
   -2.3102    0.4254   -0.3566 C   0  0  0  0  0  0  0  0  0  0  0  0
   -2.8745   -0.8159   -0.5432 C   0  0  0  0  0  0  0  0  0  0  0  0
   -2.2194   -2.0002   -1.6630 Cl  0  0  0  0  0  0  0  0  0  0  0  0
   -3.9931   -1.1333    0.1776 C   0  0  0  0  0  0  0  0  0  0  0  0
   -4.5531   -0.2854    1.0510 N   0  0  0  0  0  0  0  0  0  0  0  0
   -4.0189    0.9203    1.2433 C   0  0  0  0  0  0  0  0  0  0  0  0
   -2.8997    1.2981    0.5527 C   0  0  0  0  0  0  0  0  0  0  0  0
   -2.1330    2.8609    0.7434 Cl  0  0  0  0  0  0  0  0  0  0  0  0
    0.7284   -0.6705   -0.9925 C   0  0  0  0  0  0  0  0  0  0  0  0
    2.0236   -0.9555   -0.6123 C   0  0  0  0  0  0  0  0  0  0  0  0
  1  2  1  0
  2  3  2  0
  3  4  1  0
  2  5  1  0
  5  6  2  0
  6  7  1  0
  7  8  2  0
  8  9  1  0
  9 10  1  0
 10 11  2  0
 11 12  1  0
 11 13  1  0
 13 14  2  0
 14 15  1  0
 15 16  2  0
 16 17  1  0
  8 18  1  0
 18 19  2  0
 19  5  1  0
 16 10  1  0
M  END
>  <zinc_id>  (154) 
ZINC000004394823

>  <ortholog_name>  (154) 
DRTS_PLAFK

>  <gene_name>  (154) 
DRTS_PLAFK

>  <affinity>  (154) 
6.03

>  <chembldocid>  (154) 
21047

>  <title>  (154) 
None

>  <reference.pubmed_id>  (154) 
15293997

>  <reference.doi>  (154) 
None

>  <reference.chembl_id>  (154) 
CHEMBL1138679

>  <reference.journal>  (154) 
J. Med. Chem.

>  <reference.year>  (154) 
2004

$$$$

     RDKit          3D

 17 18  0  0  0  0  0  0  0  0999 V2000
   -0.8357   -1.8903   -1.8241 C   0  0  0  0  0  0  0  0  0  0  0  0
   -1.2497   -0.2811   -1.7656 C   0  0  1  0  0  0  0  0  0  0  0  0
   -2.7143   -0.4688   -1.7538 N   0  0  0  0  0  0  0  0  0  0  0  0
   -3.4369   -0.4843   -0.7660 C   0  0  0  0  0  0  0  0  0  0  0  0
   -4.8850   -0.6769   -0.8445 N   0  0  0  0  0  0  0  0  0  0  0  0
   -2.9848   -0.3221    0.5579 N   0  0  0  0  0  0  0  0  0  0  0  0
   -1.7363   -0.1458    0.7562 C   0  0  0  0  0  0  0  0  0  0  0  0
   -1.1985    0.0279    2.0857 N   0  0  0  0  0  0  0  0  0  0  0  0
   -0.8454   -0.1133   -0.2917 N   0  0  0  0  0  0  0  0  0  0  0  0
    0.5708    0.0858   -0.0806 C   0  0  0  0  0  0  0  0  0  0  0  0
    1.3161   -1.0521    0.1028 C   0  0  0  0  0  0  0  0  0  0  0  0
    2.6771   -0.9653    0.3119 C   0  0  0  0  0  0  0  0  0  0  0  0
    3.2811    0.2805    0.3344 C   0  0  0  0  0  0  0  0  0  0  0  0
    5.0114    0.3124    0.6047 Cl  0  0  0  0  0  0  0  0  0  0  0  0
    2.5293    1.4158    0.1502 C   0  0  0  0  0  0  0  0  0  0  0  0
    3.3544    2.9559    0.1904 Cl  0  0  0  0  0  0  0  0  0  0  0  0
    1.1463    1.3216   -0.0619 C   0  0  0  0  0  0  0  0  0  0  0  0
  2  1  1  1
  2  3  1  0
  3  4  2  0
  4  5  1  0
  4  6  1  0
  6  7  2  0
  7  8  1  0
  7  9  1  0
  9 10  1  0
 10 11  2  0
 11 12  1  0
 12 13  2  0
 13 14  1  0
 13 15  1  0
 15 16  1  0
 15 17  2  0
  9  2  1  0
 17 10  1  0
M  END
>  <zinc_id>  (155) 
ZINC000004821963

>  <ortholog_name>  (155) 
DRTS_PLAFK

>  <gene_name>  (155) 
DRTS_PLAFK

>  <affinity>  (155) 
8.85

>  <chembldocid>  (155) 
15522

>  <title>  (155) 
None

>  <reference.pubmed_id>  (155) 
10893311

>  <reference.doi>  (155) 
None

>  <reference.chembl_id>  (155) 
CHEMBL1133696

>  <reference.journal>  (155) 
J. Med. Chem.

>  <reference.year>  (155) 
2000

$$$$

     RDKit          3D

 17 18  0  0  0  0  0  0  0  0999 V2000
   -0.8357   -1.8903   -1.8241 C   0  0  0  0  0  0  0  0  0  0  0  0
   -1.2497   -0.2811   -1.7656 C   0  0  1  0  0  0  0  0  0  0  0  0
   -2.7143   -0.4688   -1.7538 N   0  0  0  0  0  0  0  0  0  0  0  0
   -3.4369   -0.4843   -0.7660 C   0  0  0  0  0  0  0  0  0  0  0  0
   -4.8850   -0.6769   -0.8445 N   0  0  0  0  0  0  0  0  0  0  0  0
   -2.9848   -0.3221    0.5579 N   0  0  0  0  0  0  0  0  0  0  0  0
   -1.7363   -0.1458    0.7562 C   0  0  0  0  0  0  0  0  0  0  0  0
   -1.1985    0.0279    2.0857 N   0  0  0  0  0  0  0  0  0  0  0  0
   -0.8454   -0.1133   -0.2917 N   0  0  0  0  0  0  0  0  0  0  0  0
    0.5708    0.0858   -0.0806 C   0  0  0  0  0  0  0  0  0  0  0  0
    1.3161   -1.0521    0.1028 C   0  0  0  0  0  0  0  0  0  0  0  0
    2.6771   -0.9653    0.3119 C   0  0  0  0  0  0  0  0  0  0  0  0
    3.2811    0.2805    0.3344 C   0  0  0  0  0  0  0  0  0  0  0  0
    5.0114    0.3124    0.6047 Cl  0  0  0  0  0  0  0  0  0  0  0  0
    2.5293    1.4158    0.1502 C   0  0  0  0  0  0  0  0  0  0  0  0
    3.3544    2.9559    0.1904 Cl  0  0  0  0  0  0  0  0  0  0  0  0
    1.1463    1.3216   -0.0619 C   0  0  0  0  0  0  0  0  0  0  0  0
  2  1  1  1
  2  3  1  0
  3  4  2  0
  4  5  1  0
  4  6  1  0
  6  7  2  0
  7  8  1  0
  7  9  1  0
  9 10  1  0
 10 11  2  0
 11 12  1  0
 12 13  2  0
 13 14  1  0
 13 15  1  0
 15 16  1  0
 15 17  2  0
  9  2  1  0
 17 10  1  0
M  END
>  <zinc_id>  (156) 
ZINC000004821963

>  <ortholog_name>  (156) 
DRTS_PLAFK

>  <gene_name>  (156) 
DRTS_PLAFK

>  <affinity>  (156) 
7.75

>  <chembldocid>  (156) 
15522

>  <title>  (156) 
None

>  <reference.pubmed_id>  (156) 
10893311

>  <reference.doi>  (156) 
None

>  <reference.chembl_id>  (156) 
CHEMBL1133696

>  <reference.journal>  (156) 
J. Med. Chem.

>  <reference.year>  (156) 
2000

$$$$

     RDKit          3D

 17 18  0  0  0  0  0  0  0  0999 V2000
   -2.5736    2.4746   -0.6783 C   0  0  0  0  0  0  0  0  0  0  0  0
   -1.4103    1.5436   -0.7266 C   0  0  0  0  0  0  0  0  0  0  0  0
   -1.4270    0.7147    0.7009 C   0  0  1  0  0  0  0  0  0  0  0  0
   -2.7673    0.1015    0.5357 N   0  0  0  0  0  0  0  0  0  0  0  0
   -3.0795   -1.0238    0.1497 C   0  0  0  0  0  0  0  0  0  0  0  0
   -4.4713   -1.3964    0.0715 N   0  0  0  0  0  0  0  0  0  0  0  0
   -2.0926   -1.9558   -0.2183 N   0  0  0  0  0  0  0  0  0  0  0  0
   -0.8584   -1.5848   -0.1348 C   0  0  0  0  0  0  0  0  0  0  0  0
    0.1892   -2.5172   -0.5052 N   0  0  0  0  0  0  0  0  0  0  0  0
   -0.4634   -0.3385    0.2905 N   0  0  0  0  0  0  0  0  0  0  0  0
    0.9170    0.0511    0.3740 C   0  0  0  0  0  0  0  0  0  0  0  0
    1.5500    0.6374   -0.7025 C   0  0  0  0  0  0  0  0  0  0  0  0
    2.8746    1.0225   -0.6530 C   0  0  0  0  0  0  0  0  0  0  0  0
    3.6311    0.8368    0.4847 C   0  0  0  0  0  0  0  0  0  0  0  0
    5.3205    1.3213    0.5662 Cl  0  0  0  0  0  0  0  0  0  0  0  0
    2.9924    0.2505    1.5566 C   0  0  0  0  0  0  0  0  0  0  0  0
    1.6686   -0.1375    1.5156 C   0  0  0  0  0  0  0  0  0  0  0  0
  1  2  1  0
  3  2  1  6
  3  4  1  0
  4  5  2  0
  5  6  1  0
  5  7  1  0
  7  8  2  0
  8  9  1  0
  8 10  1  0
 10 11  1  0
 11 12  2  0
 12 13  1  0
 13 14  2  0
 14 15  1  0
 14 16  1  0
 16 17  2  0
 10  3  1  0
 17 11  1  0
M  END
>  <zinc_id>  (157) 
ZINC000004983774

>  <ortholog_name>  (157) 
DRTS_PLAFK

>  <gene_name>  (157) 
DRTS_PLAFK

>  <affinity>  (157) 
6.72

>  <chembldocid>  (157) 
15522

>  <title>  (157) 
None

>  <reference.pubmed_id>  (157) 
10893311

>  <reference.doi>  (157) 
None

>  <reference.chembl_id>  (157) 
CHEMBL1133696

>  <reference.journal>  (157) 
J. Med. Chem.

>  <reference.year>  (157) 
2000

$$$$

     RDKit          3D

 17 18  0  0  0  0  0  0  0  0999 V2000
   -2.5736    2.4746   -0.6783 C   0  0  0  0  0  0  0  0  0  0  0  0
   -1.4103    1.5436   -0.7266 C   0  0  0  0  0  0  0  0  0  0  0  0
   -1.4270    0.7147    0.7009 C   0  0  1  0  0  0  0  0  0  0  0  0
   -2.7673    0.1015    0.5357 N   0  0  0  0  0  0  0  0  0  0  0  0
   -3.0795   -1.0238    0.1497 C   0  0  0  0  0  0  0  0  0  0  0  0
   -4.4713   -1.3964    0.0715 N   0  0  0  0  0  0  0  0  0  0  0  0
   -2.0926   -1.9558   -0.2183 N   0  0  0  0  0  0  0  0  0  0  0  0
   -0.8584   -1.5848   -0.1348 C   0  0  0  0  0  0  0  0  0  0  0  0
    0.1892   -2.5172   -0.5052 N   0  0  0  0  0  0  0  0  0  0  0  0
   -0.4634   -0.3385    0.2905 N   0  0  0  0  0  0  0  0  0  0  0  0
    0.9170    0.0511    0.3740 C   0  0  0  0  0  0  0  0  0  0  0  0
    1.5500    0.6374   -0.7025 C   0  0  0  0  0  0  0  0  0  0  0  0
    2.8746    1.0225   -0.6530 C   0  0  0  0  0  0  0  0  0  0  0  0
    3.6311    0.8368    0.4847 C   0  0  0  0  0  0  0  0  0  0  0  0
    5.3205    1.3213    0.5662 Cl  0  0  0  0  0  0  0  0  0  0  0  0
    2.9924    0.2505    1.5566 C   0  0  0  0  0  0  0  0  0  0  0  0
    1.6686   -0.1375    1.5156 C   0  0  0  0  0  0  0  0  0  0  0  0
  1  2  1  0
  3  2  1  6
  3  4  1  0
  4  5  2  0
  5  6  1  0
  5  7  1  0
  7  8  2  0
  8  9  1  0
  8 10  1  0
 10 11  1  0
 11 12  2  0
 12 13  1  0
 13 14  2  0
 14 15  1  0
 14 16  1  0
 16 17  2  0
 10  3  1  0
 17 11  1  0
M  END
>  <zinc_id>  (158) 
ZINC000004983774

>  <ortholog_name>  (158) 
DRTS_PLAFK

>  <gene_name>  (158) 
DRTS_PLAFK

>  <affinity>  (158) 
8.44

>  <chembldocid>  (158) 
15522

>  <title>  (158) 
None

>  <reference.pubmed_id>  (158) 
10893311

>  <reference.doi>  (158) 
None

>  <reference.chembl_id>  (158) 
CHEMBL1133696

>  <reference.journal>  (158) 
J. Med. Chem.

>  <reference.year>  (158) 
2000

$$$$

     RDKit          3D

 18 20  0  0  0  0  0  0  0  0999 V2000
    4.7326    0.2574    0.8795 C   0  0  0  0  0  0  0  0  0  0  0  0
    3.2875    0.1533    0.5661 C   0  0  0  0  0  0  0  0  0  0  0  0
    2.3437    0.7239    1.4106 C   0  0  0  0  0  0  0  0  0  0  0  0
    0.9895    0.6109    1.0917 C   0  0  0  0  0  0  0  0  0  0  0  0
   -0.1312    1.0410    1.6878 N   0  0  0  0  0  0  0  0  0  0  0  0
   -1.2187    0.6529    0.9431 C   0  0  0  0  0  0  0  0  0  0  0  0
   -0.7394   -0.0116   -0.1014 N   0  0  0  0  0  0  0  0  0  0  0  0
    0.6231   -0.0573   -0.0423 C   0  0  0  0  0  0  0  0  0  0  0  0
    1.5389   -0.6395   -0.9086 C   0  0  0  0  0  0  0  0  0  0  0  0
    2.8881   -0.5143   -0.5701 C   0  0  0  0  0  0  0  0  0  0  0  0
    3.9556   -1.1014   -1.4294 C   0  0  0  0  0  0  0  0  0  0  0  0
   -1.6213   -0.5653   -1.0980 C   0  0  0  0  0  0  0  0  0  0  0  0
   -1.3001   -0.0469   -2.4860 C   0  0  0  0  0  0  0  0  0  0  0  0
   -1.3706   -2.0848   -1.1274 C   0  0  0  0  0  0  0  0  0  0  0  0
   -2.9866   -0.2941   -0.7868 N   0  0  0  0  0  0  0  0  0  0  0  0
   -3.4841    0.4139    0.3274 C   0  0  0  0  0  0  0  0  0  0  0  0
   -4.8874    0.5902    0.4789 N   0  0  0  0  0  0  0  0  0  0  0  0
   -2.6197    0.8718    1.1648 N   0  0  0  0  0  0  0  0  0  0  0  0
  1  2  1  0
  2  3  2  0
  3  4  1  0
  4  5  1  0
  5  6  2  0
  6  7  1  0
  7  8  1  0
  8  9  1  0
  9 10  2  0
 10 11  1  0
  7 12  1  0
 12 13  1  0
 12 14  1  0
 12 15  1  0
 15 16  1  0
 16 17  1  0
 16 18  2  0
 10  2  1  0
  8  4  2  0
 18  6  1  0
M  END
>  <zinc_id>  (159) 
ZINC000005372203

>  <ortholog_name>  (159) 
DRTS_PLAFK

>  <gene_name>  (159) 
DRTS_PLAFK

>  <affinity>  (159) 
6.74

>  <chembldocid>  (159) 
21047

>  <title>  (159) 
None

>  <reference.pubmed_id>  (159) 
15293997

>  <reference.doi>  (159) 
None

>  <reference.chembl_id>  (159) 
CHEMBL1138679

>  <reference.journal>  (159) 
J. Med. Chem.

>  <reference.year>  (159) 
2004

$$$$

     RDKit          3D

 15 17  0  0  0  0  0  0  0  0999 V2000
   -0.7180    2.7056    0.1347 C   0  0  0  0  0  0  0  0  0  0  0  0
   -1.2070    1.3047    0.1020 C   0  0  0  0  0  0  0  0  0  0  0  0
   -2.5380    1.0092    0.1478 N   0  0  0  0  0  0  0  0  0  0  0  0
   -3.0116   -0.2467    0.1200 C   0  0  0  0  0  0  0  0  0  0  0  0
   -4.4261   -0.4482    0.1730 N   0  0  0  0  0  0  0  0  0  0  0  0
   -2.1228   -1.2936    0.0416 C   0  0  0  0  0  0  0  0  0  0  0  0
   -0.7515   -1.0692   -0.0088 C   0  0  0  0  0  0  0  0  0  0  0  0
    0.3542   -1.8292   -0.0854 N   0  0  0  0  0  0  0  0  0  0  0  0
    1.4767   -1.0450   -0.1036 C   0  0  0  0  0  0  0  0  0  0  0  0
    2.8076   -1.4015   -0.1744 C   0  0  0  0  0  0  0  0  0  0  0  0
    3.7804   -0.4374   -0.1792 C   0  0  0  0  0  0  0  0  0  0  0  0
    3.4124    0.8837   -0.1127 C   0  0  0  0  0  0  0  0  0  0  0  0
    2.0934    1.2796   -0.0408 C   0  0  0  0  0  0  0  0  0  0  0  0
    1.1126    0.2835   -0.0369 C   0  0  0  0  0  0  0  0  0  0  0  0
   -0.2622    0.3045    0.0229 C   0  0  0  0  0  0  0  0  0  0  0  0
  1  2  1  0
  2  3  1  0
  3  4  1  0
  4  5  1  0
  4  6  2  0
  6  7  1  0
  7  8  2  0
  8  9  1  0
  9 10  2  0
 10 11  1  0
 11 12  2  0
 12 13  1  0
 13 14  2  0
 14 15  1  0
 15  2  2  0
 15  7  1  0
 14  9  1  0
M  END
>  <zinc_id>  (160) 
ZINC000005765026

>  <ortholog_name>  (160) 
DRTS_PLAFK

>  <gene_name>  (160) 
DRTS_PLAFK

>  <affinity>  (160) 
5.64

>  <chembldocid>  (160) 
21047

>  <title>  (160) 
None

>  <reference.pubmed_id>  (160) 
15293997

>  <reference.doi>  (160) 
None

>  <reference.chembl_id>  (160) 
CHEMBL1138679

>  <reference.journal>  (160) 
J. Med. Chem.

>  <reference.year>  (160) 
2004

$$$$

     RDKit          3D

 20 21  0  0  0  0  0  0  0  0999 V2000
   -5.1391    1.8268    1.0869 C   0  0  0  0  0  0  0  0  0  0  0  0
   -4.7350    1.8003   -0.3573 C   0  0  0  0  0  0  0  0  0  0  0  0
   -4.0037    0.6727   -0.7212 O   0  0  0  0  0  0  0  0  0  0  0  0
   -2.7850    0.3169   -0.1607 C   0  0  0  0  0  0  0  0  0  0  0  0
   -2.1549    1.0419    0.8254 C   0  0  0  0  0  0  0  0  0  0  0  0
   -0.9393    0.6553    1.3602 C   0  0  0  0  0  0  0  0  0  0  0  0
   -0.3265   -0.4904    0.9013 C   0  0  0  0  0  0  0  0  0  0  0  0
    0.9647   -0.9227    1.4528 C   0  0  0  0  0  0  0  0  0  0  0  0
    2.0432   -0.2994    0.6351 C   0  0  0  0  0  0  0  0  0  0  0  0
    1.7972    0.5262   -0.4347 C   0  0  0  0  0  0  0  0  0  0  0  0
    2.7862    1.0878   -1.1715 N   0  0  0  0  0  0  0  0  0  0  0  0
    4.0547    0.8070   -0.8168 C   0  0  0  0  0  0  0  0  0  0  0  0
    5.1555    1.3432   -1.5215 N   0  0  0  0  0  0  0  0  0  0  0  0
    4.3165   -0.0024    0.2319 N   0  0  0  0  0  0  0  0  0  0  0  0
    3.3355   -0.5671    0.9726 C   0  0  0  0  0  0  0  0  0  0  0  0
    3.6252   -1.4150    2.0710 N   0  0  0  0  0  0  0  0  0  0  0  0
   -0.9368   -1.2346   -0.0860 C   0  0  0  0  0  0  0  0  0  0  0  0
   -2.1481   -0.8330   -0.6064 C   0  0  0  0  0  0  0  0  0  0  0  0
   -2.7590   -1.5753   -1.5927 O   0  0  0  0  0  0  0  0  0  0  0  0
   -2.1514   -2.7383   -2.0683 C   0  0  0  0  0  0  0  0  0  0  0  0
  1  2  1  0
  2  3  1  0
  3  4  1  0
  4  5  2  0
  5  6  1  0
  6  7  2  0
  7  8  1  0
  8  9  1  0
  9 10  2  0
 10 11  1  0
 11 12  2  0
 12 13  1  0
 12 14  1  0
 14 15  2  0
 15 16  1  0
  7 17  1  0
 17 18  2  0
 18 19  1  0
 19 20  1  0
 18  4  1  0
 15  9  1  0
M  END
>  <zinc_id>  (161) 
ZINC000005884512

>  <ortholog_name>  (161) 
DRTS_PLAFK

>  <gene_name>  (161) 
DRTS_PLAFK

>  <affinity>  (161) 
7.81

>  <chembldocid>  (161) 
17636

>  <title>  (161) 
None

>  <reference.pubmed_id>  (161) 
14711307

>  <reference.doi>  (161) 
None

>  <reference.chembl_id>  (161) 
CHEMBL1148379

>  <reference.journal>  (161) 
J. Med. Chem.

>  <reference.year>  (161) 
2004

$$$$

     RDKit          3D

 20 21  0  0  0  0  0  0  0  0999 V2000
   -5.1391    1.8268    1.0869 C   0  0  0  0  0  0  0  0  0  0  0  0
   -4.7350    1.8003   -0.3573 C   0  0  0  0  0  0  0  0  0  0  0  0
   -4.0037    0.6727   -0.7212 O   0  0  0  0  0  0  0  0  0  0  0  0
   -2.7850    0.3169   -0.1607 C   0  0  0  0  0  0  0  0  0  0  0  0
   -2.1549    1.0419    0.8254 C   0  0  0  0  0  0  0  0  0  0  0  0
   -0.9393    0.6553    1.3602 C   0  0  0  0  0  0  0  0  0  0  0  0
   -0.3265   -0.4904    0.9013 C   0  0  0  0  0  0  0  0  0  0  0  0
    0.9647   -0.9227    1.4528 C   0  0  0  0  0  0  0  0  0  0  0  0
    2.0432   -0.2994    0.6351 C   0  0  0  0  0  0  0  0  0  0  0  0
    1.7972    0.5262   -0.4347 C   0  0  0  0  0  0  0  0  0  0  0  0
    2.7862    1.0878   -1.1715 N   0  0  0  0  0  0  0  0  0  0  0  0
    4.0547    0.8070   -0.8168 C   0  0  0  0  0  0  0  0  0  0  0  0
    5.1555    1.3432   -1.5215 N   0  0  0  0  0  0  0  0  0  0  0  0
    4.3165   -0.0024    0.2319 N   0  0  0  0  0  0  0  0  0  0  0  0
    3.3355   -0.5671    0.9726 C   0  0  0  0  0  0  0  0  0  0  0  0
    3.6252   -1.4150    2.0710 N   0  0  0  0  0  0  0  0  0  0  0  0
   -0.9368   -1.2346   -0.0860 C   0  0  0  0  0  0  0  0  0  0  0  0
   -2.1481   -0.8330   -0.6064 C   0  0  0  0  0  0  0  0  0  0  0  0
   -2.7590   -1.5753   -1.5927 O   0  0  0  0  0  0  0  0  0  0  0  0
   -2.1514   -2.7383   -2.0683 C   0  0  0  0  0  0  0  0  0  0  0  0
  1  2  1  0
  2  3  1  0
  3  4  1  0
  4  5  2  0
  5  6  1  0
  6  7  2  0
  7  8  1  0
  8  9  1  0
  9 10  2  0
 10 11  1  0
 11 12  2  0
 12 13  1  0
 12 14  1  0
 14 15  2  0
 15 16  1  0
  7 17  1  0
 17 18  2  0
 18 19  1  0
 19 20  1  0
 18  4  1  0
 15  9  1  0
M  END
>  <zinc_id>  (162) 
ZINC000005884512

>  <ortholog_name>  (162) 
DRTS_PLAFK

>  <gene_name>  (162) 
DRTS_PLAFK

>  <affinity>  (162) 
6.73

>  <chembldocid>  (162) 
17636

>  <title>  (162) 
None

>  <reference.pubmed_id>  (162) 
14711307

>  <reference.doi>  (162) 
None

>  <reference.chembl_id>  (162) 
CHEMBL1148379

>  <reference.journal>  (162) 
J. Med. Chem.

>  <reference.year>  (162) 
2004

$$$$

     RDKit          3D

 20 21  0  0  0  0  0  0  0  0999 V2000
   -5.1391    1.8268    1.0869 C   0  0  0  0  0  0  0  0  0  0  0  0
   -4.7350    1.8003   -0.3573 C   0  0  0  0  0  0  0  0  0  0  0  0
   -4.0037    0.6727   -0.7212 O   0  0  0  0  0  0  0  0  0  0  0  0
   -2.7850    0.3169   -0.1607 C   0  0  0  0  0  0  0  0  0  0  0  0
   -2.1549    1.0419    0.8254 C   0  0  0  0  0  0  0  0  0  0  0  0
   -0.9393    0.6553    1.3602 C   0  0  0  0  0  0  0  0  0  0  0  0
   -0.3265   -0.4904    0.9013 C   0  0  0  0  0  0  0  0  0  0  0  0
    0.9647   -0.9227    1.4528 C   0  0  0  0  0  0  0  0  0  0  0  0
    2.0432   -0.2994    0.6351 C   0  0  0  0  0  0  0  0  0  0  0  0
    1.7972    0.5262   -0.4347 C   0  0  0  0  0  0  0  0  0  0  0  0
    2.7862    1.0878   -1.1715 N   0  0  0  0  0  0  0  0  0  0  0  0
    4.0547    0.8070   -0.8168 C   0  0  0  0  0  0  0  0  0  0  0  0
    5.1555    1.3432   -1.5215 N   0  0  0  0  0  0  0  0  0  0  0  0
    4.3165   -0.0024    0.2319 N   0  0  0  0  0  0  0  0  0  0  0  0
    3.3355   -0.5671    0.9726 C   0  0  0  0  0  0  0  0  0  0  0  0
    3.6252   -1.4150    2.0710 N   0  0  0  0  0  0  0  0  0  0  0  0
   -0.9368   -1.2346   -0.0860 C   0  0  0  0  0  0  0  0  0  0  0  0
   -2.1481   -0.8330   -0.6064 C   0  0  0  0  0  0  0  0  0  0  0  0
   -2.7590   -1.5753   -1.5927 O   0  0  0  0  0  0  0  0  0  0  0  0
   -2.1514   -2.7383   -2.0683 C   0  0  0  0  0  0  0  0  0  0  0  0
  1  2  1  0
  2  3  1  0
  3  4  1  0
  4  5  2  0
  5  6  1  0
  6  7  2  0
  7  8  1  0
  8  9  1  0
  9 10  2  0
 10 11  1  0
 11 12  2  0
 12 13  1  0
 12 14  1  0
 14 15  2  0
 15 16  1  0
  7 17  1  0
 17 18  2  0
 18 19  1  0
 19 20  1  0
 18  4  1  0
 15  9  1  0
M  END
>  <zinc_id>  (163) 
ZINC000005884512

>  <ortholog_name>  (163) 
DRTS_PLAFK

>  <gene_name>  (163) 
DRTS_PLAFK

>  <affinity>  (163) 
5.45

>  <chembldocid>  (163) 
17636

>  <title>  (163) 
None

>  <reference.pubmed_id>  (163) 
14711307

>  <reference.doi>  (163) 
None

>  <reference.chembl_id>  (163) 
CHEMBL1148379

>  <reference.journal>  (163) 
J. Med. Chem.

>  <reference.year>  (163) 
2004

$$$$

     RDKit          3D

 27 29  0  0  0  0  0  0  0  0999 V2000
    0.0411    2.2955   -2.6940 C   0  0  0  0  0  0  0  0  0  0  0  0
    0.6532    1.7421   -1.5573 O   0  0  0  0  0  0  0  0  0  0  0  0
    0.0430    0.6883   -0.8755 C   0  0  0  0  0  0  0  0  0  0  0  0
   -1.1693    0.1676   -1.2989 C   0  0  0  0  0  0  0  0  0  0  0  0
   -1.8186   -0.8727   -0.6652 C   0  0  0  0  0  0  0  0  0  0  0  0
   -3.1290   -1.4001   -1.1629 C   0  0  0  0  0  0  0  0  0  0  0  0
   -4.2319   -0.6788   -0.5159 C   0  0  0  0  0  0  0  0  0  0  0  0
   -4.9602   -1.2900    0.5070 C   0  0  0  0  0  0  0  0  0  0  0  0
   -5.9800   -0.6149    1.0996 N   0  0  0  0  0  0  0  0  0  0  0  0
   -6.3097    0.6316    0.7272 C   0  0  0  0  0  0  0  0  0  0  0  0
   -7.3903    1.2857    1.3880 N   0  0  0  0  0  0  0  0  0  0  0  0
   -5.6018    1.2198   -0.2640 N   0  0  0  0  0  0  0  0  0  0  0  0
   -4.5759    0.6018   -0.8937 C   0  0  0  0  0  0  0  0  0  0  0  0
   -3.8688    1.2890   -1.9378 N   0  0  0  0  0  0  0  0  0  0  0  0
   -1.2034   -1.4046    0.4494 C   0  0  0  0  0  0  0  0  0  0  0  0
    0.0142   -0.8941    0.8885 C   0  0  0  0  0  0  0  0  0  0  0  0
    0.6453    0.1447    0.2414 C   0  0  0  0  0  0  0  0  0  0  0  0
    1.8586    0.6712    0.6594 O   0  0  0  0  0  0  0  0  0  0  0  0
    2.5566    0.1895    1.7875 C   0  0  0  0  0  0  0  0  0  0  0  0
    2.8925   -1.2652    1.5977 C   0  0  0  0  0  0  0  0  0  0  0  0
    3.7550   -1.5418    0.4032 C   0  0  0  0  0  0  0  0  0  0  0  0
    5.0568   -0.8248    0.5043 C   0  0  0  0  0  0  0  0  0  0  0  0
    5.2281    0.4586   -0.0024 C   0  0  0  0  0  0  0  0  0  0  0  0
    6.4507    1.0906    0.1103 C   0  0  0  0  0  0  0  0  0  0  0  0
    7.5375    0.5074    0.7111 C   0  0  0  0  0  0  0  0  0  0  0  0
    7.3618   -0.7765    1.2166 C   0  0  0  0  0  0  0  0  0  0  0  0
    6.1443   -1.4198    1.1104 C   0  0  0  0  0  0  0  0  0  0  0  0
  1  2  1  0
  2  3  1  0
  3  4  2  0
  4  5  1  0
  5  6  1  0
  6  7  1  0
  7  8  2  0
  8  9  1  0
  9 10  2  0
 10 11  1  0
 10 12  1  0
 12 13  2  0
 13 14  1  0
  5 15  2  0
 15 16  1  0
 16 17  2  0
 17 18  1  0
 18 19  1  0
 19 20  1  0
 20 21  1  0
 21 22  1  0
 22 23  2  0
 23 24  1  0
 24 25  2  0
 25 26  1  0
 26 27  2  0
 17  3  1  0
 27 22  1  0
 13  7  1  0
M  END
>  <zinc_id>  (164) 
ZINC000005888905

>  <ortholog_name>  (164) 
DRTS_PLAFK

>  <gene_name>  (164) 
DRTS_PLAFK

>  <affinity>  (164) 
8.74

>  <chembldocid>  (164) 
16871

>  <title>  (164) 
None

>  <reference.pubmed_id>  (164) 
11881993

>  <reference.doi>  (164) 
None

>  <reference.chembl_id>  (164) 
CHEMBL1135602

>  <reference.journal>  (164) 
J. Med. Chem.

>  <reference.year>  (164) 
2002

$$$$

     RDKit          3D

 27 29  0  0  0  0  0  0  0  0999 V2000
    0.0411    2.2955   -2.6940 C   0  0  0  0  0  0  0  0  0  0  0  0
    0.6532    1.7421   -1.5573 O   0  0  0  0  0  0  0  0  0  0  0  0
    0.0430    0.6883   -0.8755 C   0  0  0  0  0  0  0  0  0  0  0  0
   -1.1693    0.1676   -1.2989 C   0  0  0  0  0  0  0  0  0  0  0  0
   -1.8186   -0.8727   -0.6652 C   0  0  0  0  0  0  0  0  0  0  0  0
   -3.1290   -1.4001   -1.1629 C   0  0  0  0  0  0  0  0  0  0  0  0
   -4.2319   -0.6788   -0.5159 C   0  0  0  0  0  0  0  0  0  0  0  0
   -4.9602   -1.2900    0.5070 C   0  0  0  0  0  0  0  0  0  0  0  0
   -5.9800   -0.6149    1.0996 N   0  0  0  0  0  0  0  0  0  0  0  0
   -6.3097    0.6316    0.7272 C   0  0  0  0  0  0  0  0  0  0  0  0
   -7.3903    1.2857    1.3880 N   0  0  0  0  0  0  0  0  0  0  0  0
   -5.6018    1.2198   -0.2640 N   0  0  0  0  0  0  0  0  0  0  0  0
   -4.5759    0.6018   -0.8937 C   0  0  0  0  0  0  0  0  0  0  0  0
   -3.8688    1.2890   -1.9378 N   0  0  0  0  0  0  0  0  0  0  0  0
   -1.2034   -1.4046    0.4494 C   0  0  0  0  0  0  0  0  0  0  0  0
    0.0142   -0.8941    0.8885 C   0  0  0  0  0  0  0  0  0  0  0  0
    0.6453    0.1447    0.2414 C   0  0  0  0  0  0  0  0  0  0  0  0
    1.8586    0.6712    0.6594 O   0  0  0  0  0  0  0  0  0  0  0  0
    2.5566    0.1895    1.7875 C   0  0  0  0  0  0  0  0  0  0  0  0
    2.8925   -1.2652    1.5977 C   0  0  0  0  0  0  0  0  0  0  0  0
    3.7550   -1.5418    0.4032 C   0  0  0  0  0  0  0  0  0  0  0  0
    5.0568   -0.8248    0.5043 C   0  0  0  0  0  0  0  0  0  0  0  0
    5.2281    0.4586   -0.0024 C   0  0  0  0  0  0  0  0  0  0  0  0
    6.4507    1.0906    0.1103 C   0  0  0  0  0  0  0  0  0  0  0  0
    7.5375    0.5074    0.7111 C   0  0  0  0  0  0  0  0  0  0  0  0
    7.3618   -0.7765    1.2166 C   0  0  0  0  0  0  0  0  0  0  0  0
    6.1443   -1.4198    1.1104 C   0  0  0  0  0  0  0  0  0  0  0  0
  1  2  1  0
  2  3  1  0
  3  4  2  0
  4  5  1  0
  5  6  1  0
  6  7  1  0
  7  8  2  0
  8  9  1  0
  9 10  2  0
 10 11  1  0
 10 12  1  0
 12 13  2  0
 13 14  1  0
  5 15  2  0
 15 16  1  0
 16 17  2  0
 17 18  1  0
 18 19  1  0
 19 20  1  0
 20 21  1  0
 21 22  1  0
 22 23  2  0
 23 24  1  0
 24 25  2  0
 25 26  1  0
 26 27  2  0
 17  3  1  0
 27 22  1  0
 13  7  1  0
M  END
>  <zinc_id>  (165) 
ZINC000005888905

>  <ortholog_name>  (165) 
DRTS_PLAFK

>  <gene_name>  (165) 
DRTS_PLAFK

>  <affinity>  (165) 
8.74

>  <chembldocid>  (165) 
17636

>  <title>  (165) 
None

>  <reference.pubmed_id>  (165) 
14711307

>  <reference.doi>  (165) 
None

>  <reference.chembl_id>  (165) 
CHEMBL1148379

>  <reference.journal>  (165) 
J. Med. Chem.

>  <reference.year>  (165) 
2004

$$$$

     RDKit          3D

 27 29  0  0  0  0  0  0  0  0999 V2000
    0.0411    2.2955   -2.6940 C   0  0  0  0  0  0  0  0  0  0  0  0
    0.6532    1.7421   -1.5573 O   0  0  0  0  0  0  0  0  0  0  0  0
    0.0430    0.6883   -0.8755 C   0  0  0  0  0  0  0  0  0  0  0  0
   -1.1693    0.1676   -1.2989 C   0  0  0  0  0  0  0  0  0  0  0  0
   -1.8186   -0.8727   -0.6652 C   0  0  0  0  0  0  0  0  0  0  0  0
   -3.1290   -1.4001   -1.1629 C   0  0  0  0  0  0  0  0  0  0  0  0
   -4.2319   -0.6788   -0.5159 C   0  0  0  0  0  0  0  0  0  0  0  0
   -4.9602   -1.2900    0.5070 C   0  0  0  0  0  0  0  0  0  0  0  0
   -5.9800   -0.6149    1.0996 N   0  0  0  0  0  0  0  0  0  0  0  0
   -6.3097    0.6316    0.7272 C   0  0  0  0  0  0  0  0  0  0  0  0
   -7.3903    1.2857    1.3880 N   0  0  0  0  0  0  0  0  0  0  0  0
   -5.6018    1.2198   -0.2640 N   0  0  0  0  0  0  0  0  0  0  0  0
   -4.5759    0.6018   -0.8937 C   0  0  0  0  0  0  0  0  0  0  0  0
   -3.8688    1.2890   -1.9378 N   0  0  0  0  0  0  0  0  0  0  0  0
   -1.2034   -1.4046    0.4494 C   0  0  0  0  0  0  0  0  0  0  0  0
    0.0142   -0.8941    0.8885 C   0  0  0  0  0  0  0  0  0  0  0  0
    0.6453    0.1447    0.2414 C   0  0  0  0  0  0  0  0  0  0  0  0
    1.8586    0.6712    0.6594 O   0  0  0  0  0  0  0  0  0  0  0  0
    2.5566    0.1895    1.7875 C   0  0  0  0  0  0  0  0  0  0  0  0
    2.8925   -1.2652    1.5977 C   0  0  0  0  0  0  0  0  0  0  0  0
    3.7550   -1.5418    0.4032 C   0  0  0  0  0  0  0  0  0  0  0  0
    5.0568   -0.8248    0.5043 C   0  0  0  0  0  0  0  0  0  0  0  0
    5.2281    0.4586   -0.0024 C   0  0  0  0  0  0  0  0  0  0  0  0
    6.4507    1.0906    0.1103 C   0  0  0  0  0  0  0  0  0  0  0  0
    7.5375    0.5074    0.7111 C   0  0  0  0  0  0  0  0  0  0  0  0
    7.3618   -0.7765    1.2166 C   0  0  0  0  0  0  0  0  0  0  0  0
    6.1443   -1.4198    1.1104 C   0  0  0  0  0  0  0  0  0  0  0  0
  1  2  1  0
  2  3  1  0
  3  4  2  0
  4  5  1  0
  5  6  1  0
  6  7  1  0
  7  8  2  0
  8  9  1  0
  9 10  2  0
 10 11  1  0
 10 12  1  0
 12 13  2  0
 13 14  1  0
  5 15  2  0
 15 16  1  0
 16 17  2  0
 17 18  1  0
 18 19  1  0
 19 20  1  0
 20 21  1  0
 21 22  1  0
 22 23  2  0
 23 24  1  0
 24 25  2  0
 25 26  1  0
 26 27  2  0
 17  3  1  0
 27 22  1  0
 13  7  1  0
M  END
>  <zinc_id>  (166) 
ZINC000005888905

>  <ortholog_name>  (166) 
DRTS_PLAFK

>  <gene_name>  (166) 
DRTS_PLAFK

>  <affinity>  (166) 
5.95

>  <chembldocid>  (166) 
17636

>  <title>  (166) 
None

>  <reference.pubmed_id>  (166) 
14711307

>  <reference.doi>  (166) 
None

>  <reference.chembl_id>  (166) 
CHEMBL1148379

>  <reference.journal>  (166) 
J. Med. Chem.

>  <reference.year>  (166) 
2004

$$$$

     RDKit          3D

 27 29  0  0  0  0  0  0  0  0999 V2000
    0.0411    2.2955   -2.6940 C   0  0  0  0  0  0  0  0  0  0  0  0
    0.6532    1.7421   -1.5573 O   0  0  0  0  0  0  0  0  0  0  0  0
    0.0430    0.6883   -0.8755 C   0  0  0  0  0  0  0  0  0  0  0  0
   -1.1693    0.1676   -1.2989 C   0  0  0  0  0  0  0  0  0  0  0  0
   -1.8186   -0.8727   -0.6652 C   0  0  0  0  0  0  0  0  0  0  0  0
   -3.1290   -1.4001   -1.1629 C   0  0  0  0  0  0  0  0  0  0  0  0
   -4.2319   -0.6788   -0.5159 C   0  0  0  0  0  0  0  0  0  0  0  0
   -4.9602   -1.2900    0.5070 C   0  0  0  0  0  0  0  0  0  0  0  0
   -5.9800   -0.6149    1.0996 N   0  0  0  0  0  0  0  0  0  0  0  0
   -6.3097    0.6316    0.7272 C   0  0  0  0  0  0  0  0  0  0  0  0
   -7.3903    1.2857    1.3880 N   0  0  0  0  0  0  0  0  0  0  0  0
   -5.6018    1.2198   -0.2640 N   0  0  0  0  0  0  0  0  0  0  0  0
   -4.5759    0.6018   -0.8937 C   0  0  0  0  0  0  0  0  0  0  0  0
   -3.8688    1.2890   -1.9378 N   0  0  0  0  0  0  0  0  0  0  0  0
   -1.2034   -1.4046    0.4494 C   0  0  0  0  0  0  0  0  0  0  0  0
    0.0142   -0.8941    0.8885 C   0  0  0  0  0  0  0  0  0  0  0  0
    0.6453    0.1447    0.2414 C   0  0  0  0  0  0  0  0  0  0  0  0
    1.8586    0.6712    0.6594 O   0  0  0  0  0  0  0  0  0  0  0  0
    2.5566    0.1895    1.7875 C   0  0  0  0  0  0  0  0  0  0  0  0
    2.8925   -1.2652    1.5977 C   0  0  0  0  0  0  0  0  0  0  0  0
    3.7550   -1.5418    0.4032 C   0  0  0  0  0  0  0  0  0  0  0  0
    5.0568   -0.8248    0.5043 C   0  0  0  0  0  0  0  0  0  0  0  0
    5.2281    0.4586   -0.0024 C   0  0  0  0  0  0  0  0  0  0  0  0
    6.4507    1.0906    0.1103 C   0  0  0  0  0  0  0  0  0  0  0  0
    7.5375    0.5074    0.7111 C   0  0  0  0  0  0  0  0  0  0  0  0
    7.3618   -0.7765    1.2166 C   0  0  0  0  0  0  0  0  0  0  0  0
    6.1443   -1.4198    1.1104 C   0  0  0  0  0  0  0  0  0  0  0  0
  1  2  1  0
  2  3  1  0
  3  4  2  0
  4  5  1  0
  5  6  1  0
  6  7  1  0
  7  8  2  0
  8  9  1  0
  9 10  2  0
 10 11  1  0
 10 12  1  0
 12 13  2  0
 13 14  1  0
  5 15  2  0
 15 16  1  0
 16 17  2  0
 17 18  1  0
 18 19  1  0
 19 20  1  0
 20 21  1  0
 21 22  1  0
 22 23  2  0
 23 24  1  0
 24 25  2  0
 25 26  1  0
 26 27  2  0
 17  3  1  0
 27 22  1  0
 13  7  1  0
M  END
>  <zinc_id>  (167) 
ZINC000005888905

>  <ortholog_name>  (167) 
DRTS_PLAFK

>  <gene_name>  (167) 
DRTS_PLAFK

>  <affinity>  (167) 
7.58

>  <chembldocid>  (167) 
16871

>  <title>  (167) 
None

>  <reference.pubmed_id>  (167) 
11881993

>  <reference.doi>  (167) 
None

>  <reference.chembl_id>  (167) 
CHEMBL1135602

>  <reference.journal>  (167) 
J. Med. Chem.

>  <reference.year>  (167) 
2002

$$$$

     RDKit          3D

 27 29  0  0  0  0  0  0  0  0999 V2000
    0.0411    2.2955   -2.6940 C   0  0  0  0  0  0  0  0  0  0  0  0
    0.6532    1.7421   -1.5573 O   0  0  0  0  0  0  0  0  0  0  0  0
    0.0430    0.6883   -0.8755 C   0  0  0  0  0  0  0  0  0  0  0  0
   -1.1693    0.1676   -1.2989 C   0  0  0  0  0  0  0  0  0  0  0  0
   -1.8186   -0.8727   -0.6652 C   0  0  0  0  0  0  0  0  0  0  0  0
   -3.1290   -1.4001   -1.1629 C   0  0  0  0  0  0  0  0  0  0  0  0
   -4.2319   -0.6788   -0.5159 C   0  0  0  0  0  0  0  0  0  0  0  0
   -4.9602   -1.2900    0.5070 C   0  0  0  0  0  0  0  0  0  0  0  0
   -5.9800   -0.6149    1.0996 N   0  0  0  0  0  0  0  0  0  0  0  0
   -6.3097    0.6316    0.7272 C   0  0  0  0  0  0  0  0  0  0  0  0
   -7.3903    1.2857    1.3880 N   0  0  0  0  0  0  0  0  0  0  0  0
   -5.6018    1.2198   -0.2640 N   0  0  0  0  0  0  0  0  0  0  0  0
   -4.5759    0.6018   -0.8937 C   0  0  0  0  0  0  0  0  0  0  0  0
   -3.8688    1.2890   -1.9378 N   0  0  0  0  0  0  0  0  0  0  0  0
   -1.2034   -1.4046    0.4494 C   0  0  0  0  0  0  0  0  0  0  0  0
    0.0142   -0.8941    0.8885 C   0  0  0  0  0  0  0  0  0  0  0  0
    0.6453    0.1447    0.2414 C   0  0  0  0  0  0  0  0  0  0  0  0
    1.8586    0.6712    0.6594 O   0  0  0  0  0  0  0  0  0  0  0  0
    2.5566    0.1895    1.7875 C   0  0  0  0  0  0  0  0  0  0  0  0
    2.8925   -1.2652    1.5977 C   0  0  0  0  0  0  0  0  0  0  0  0
    3.7550   -1.5418    0.4032 C   0  0  0  0  0  0  0  0  0  0  0  0
    5.0568   -0.8248    0.5043 C   0  0  0  0  0  0  0  0  0  0  0  0
    5.2281    0.4586   -0.0024 C   0  0  0  0  0  0  0  0  0  0  0  0
    6.4507    1.0906    0.1103 C   0  0  0  0  0  0  0  0  0  0  0  0
    7.5375    0.5074    0.7111 C   0  0  0  0  0  0  0  0  0  0  0  0
    7.3618   -0.7765    1.2166 C   0  0  0  0  0  0  0  0  0  0  0  0
    6.1443   -1.4198    1.1104 C   0  0  0  0  0  0  0  0  0  0  0  0
  1  2  1  0
  2  3  1  0
  3  4  2  0
  4  5  1  0
  5  6  1  0
  6  7  1  0
  7  8  2  0
  8  9  1  0
  9 10  2  0
 10 11  1  0
 10 12  1  0
 12 13  2  0
 13 14  1  0
  5 15  2  0
 15 16  1  0
 16 17  2  0
 17 18  1  0
 18 19  1  0
 19 20  1  0
 20 21  1  0
 21 22  1  0
 22 23  2  0
 23 24  1  0
 24 25  2  0
 25 26  1  0
 26 27  2  0
 17  3  1  0
 27 22  1  0
 13  7  1  0
M  END
>  <zinc_id>  (168) 
ZINC000005888905

>  <ortholog_name>  (168) 
DRTS_PLAFK

>  <gene_name>  (168) 
DRTS_PLAFK

>  <affinity>  (168) 
5.51

>  <chembldocid>  (168) 
17636

>  <title>  (168) 
None

>  <reference.pubmed_id>  (168) 
14711307

>  <reference.doi>  (168) 
None

>  <reference.chembl_id>  (168) 
CHEMBL1148379

>  <reference.journal>  (168) 
J. Med. Chem.

>  <reference.year>  (168) 
2004

$$$$

     RDKit          3D

 27 29  0  0  0  0  0  0  0  0999 V2000
    0.0411    2.2955   -2.6940 C   0  0  0  0  0  0  0  0  0  0  0  0
    0.6532    1.7421   -1.5573 O   0  0  0  0  0  0  0  0  0  0  0  0
    0.0430    0.6883   -0.8755 C   0  0  0  0  0  0  0  0  0  0  0  0
   -1.1693    0.1676   -1.2989 C   0  0  0  0  0  0  0  0  0  0  0  0
   -1.8186   -0.8727   -0.6652 C   0  0  0  0  0  0  0  0  0  0  0  0
   -3.1290   -1.4001   -1.1629 C   0  0  0  0  0  0  0  0  0  0  0  0
   -4.2319   -0.6788   -0.5159 C   0  0  0  0  0  0  0  0  0  0  0  0
   -4.9602   -1.2900    0.5070 C   0  0  0  0  0  0  0  0  0  0  0  0
   -5.9800   -0.6149    1.0996 N   0  0  0  0  0  0  0  0  0  0  0  0
   -6.3097    0.6316    0.7272 C   0  0  0  0  0  0  0  0  0  0  0  0
   -7.3903    1.2857    1.3880 N   0  0  0  0  0  0  0  0  0  0  0  0
   -5.6018    1.2198   -0.2640 N   0  0  0  0  0  0  0  0  0  0  0  0
   -4.5759    0.6018   -0.8937 C   0  0  0  0  0  0  0  0  0  0  0  0
   -3.8688    1.2890   -1.9378 N   0  0  0  0  0  0  0  0  0  0  0  0
   -1.2034   -1.4046    0.4494 C   0  0  0  0  0  0  0  0  0  0  0  0
    0.0142   -0.8941    0.8885 C   0  0  0  0  0  0  0  0  0  0  0  0
    0.6453    0.1447    0.2414 C   0  0  0  0  0  0  0  0  0  0  0  0
    1.8586    0.6712    0.6594 O   0  0  0  0  0  0  0  0  0  0  0  0
    2.5566    0.1895    1.7875 C   0  0  0  0  0  0  0  0  0  0  0  0
    2.8925   -1.2652    1.5977 C   0  0  0  0  0  0  0  0  0  0  0  0
    3.7550   -1.5418    0.4032 C   0  0  0  0  0  0  0  0  0  0  0  0
    5.0568   -0.8248    0.5043 C   0  0  0  0  0  0  0  0  0  0  0  0
    5.2281    0.4586   -0.0024 C   0  0  0  0  0  0  0  0  0  0  0  0
    6.4507    1.0906    0.1103 C   0  0  0  0  0  0  0  0  0  0  0  0
    7.5375    0.5074    0.7111 C   0  0  0  0  0  0  0  0  0  0  0  0
    7.3618   -0.7765    1.2166 C   0  0  0  0  0  0  0  0  0  0  0  0
    6.1443   -1.4198    1.1104 C   0  0  0  0  0  0  0  0  0  0  0  0
  1  2  1  0
  2  3  1  0
  3  4  2  0
  4  5  1  0
  5  6  1  0
  6  7  1  0
  7  8  2  0
  8  9  1  0
  9 10  2  0
 10 11  1  0
 10 12  1  0
 12 13  2  0
 13 14  1  0
  5 15  2  0
 15 16  1  0
 16 17  2  0
 17 18  1  0
 18 19  1  0
 19 20  1  0
 20 21  1  0
 21 22  1  0
 22 23  2  0
 23 24  1  0
 24 25  2  0
 25 26  1  0
 26 27  2  0
 17  3  1  0
 27 22  1  0
 13  7  1  0
M  END
>  <zinc_id>  (169) 
ZINC000005888905

>  <ortholog_name>  (169) 
DRTS_PLAFK

>  <gene_name>  (169) 
DRTS_PLAFK

>  <affinity>  (169) 
7.35

>  <chembldocid>  (169) 
16871

>  <title>  (169) 
None

>  <reference.pubmed_id>  (169) 
11881993

>  <reference.doi>  (169) 
None

>  <reference.chembl_id>  (169) 
CHEMBL1135602

>  <reference.journal>  (169) 
J. Med. Chem.

>  <reference.year>  (169) 
2002

$$$$

     RDKit          3D

 27 29  0  0  0  0  0  0  0  0999 V2000
    0.0411    2.2955   -2.6940 C   0  0  0  0  0  0  0  0  0  0  0  0
    0.6532    1.7421   -1.5573 O   0  0  0  0  0  0  0  0  0  0  0  0
    0.0430    0.6883   -0.8755 C   0  0  0  0  0  0  0  0  0  0  0  0
   -1.1693    0.1676   -1.2989 C   0  0  0  0  0  0  0  0  0  0  0  0
   -1.8186   -0.8727   -0.6652 C   0  0  0  0  0  0  0  0  0  0  0  0
   -3.1290   -1.4001   -1.1629 C   0  0  0  0  0  0  0  0  0  0  0  0
   -4.2319   -0.6788   -0.5159 C   0  0  0  0  0  0  0  0  0  0  0  0
   -4.9602   -1.2900    0.5070 C   0  0  0  0  0  0  0  0  0  0  0  0
   -5.9800   -0.6149    1.0996 N   0  0  0  0  0  0  0  0  0  0  0  0
   -6.3097    0.6316    0.7272 C   0  0  0  0  0  0  0  0  0  0  0  0
   -7.3903    1.2857    1.3880 N   0  0  0  0  0  0  0  0  0  0  0  0
   -5.6018    1.2198   -0.2640 N   0  0  0  0  0  0  0  0  0  0  0  0
   -4.5759    0.6018   -0.8937 C   0  0  0  0  0  0  0  0  0  0  0  0
   -3.8688    1.2890   -1.9378 N   0  0  0  0  0  0  0  0  0  0  0  0
   -1.2034   -1.4046    0.4494 C   0  0  0  0  0  0  0  0  0  0  0  0
    0.0142   -0.8941    0.8885 C   0  0  0  0  0  0  0  0  0  0  0  0
    0.6453    0.1447    0.2414 C   0  0  0  0  0  0  0  0  0  0  0  0
    1.8586    0.6712    0.6594 O   0  0  0  0  0  0  0  0  0  0  0  0
    2.5566    0.1895    1.7875 C   0  0  0  0  0  0  0  0  0  0  0  0
    2.8925   -1.2652    1.5977 C   0  0  0  0  0  0  0  0  0  0  0  0
    3.7550   -1.5418    0.4032 C   0  0  0  0  0  0  0  0  0  0  0  0
    5.0568   -0.8248    0.5043 C   0  0  0  0  0  0  0  0  0  0  0  0
    5.2281    0.4586   -0.0024 C   0  0  0  0  0  0  0  0  0  0  0  0
    6.4507    1.0906    0.1103 C   0  0  0  0  0  0  0  0  0  0  0  0
    7.5375    0.5074    0.7111 C   0  0  0  0  0  0  0  0  0  0  0  0
    7.3618   -0.7765    1.2166 C   0  0  0  0  0  0  0  0  0  0  0  0
    6.1443   -1.4198    1.1104 C   0  0  0  0  0  0  0  0  0  0  0  0
  1  2  1  0
  2  3  1  0
  3  4  2  0
  4  5  1  0
  5  6  1  0
  6  7  1  0
  7  8  2  0
  8  9  1  0
  9 10  2  0
 10 11  1  0
 10 12  1  0
 12 13  2  0
 13 14  1  0
  5 15  2  0
 15 16  1  0
 16 17  2  0
 17 18  1  0
 18 19  1  0
 19 20  1  0
 20 21  1  0
 21 22  1  0
 22 23  2  0
 23 24  1  0
 24 25  2  0
 25 26  1  0
 26 27  2  0
 17  3  1  0
 27 22  1  0
 13  7  1  0
M  END
>  <zinc_id>  (170) 
ZINC000005888905

>  <ortholog_name>  (170) 
DRTS_PLAFK

>  <gene_name>  (170) 
DRTS_PLAFK

>  <affinity>  (170) 
7.35

>  <chembldocid>  (170) 
17636

>  <title>  (170) 
None

>  <reference.pubmed_id>  (170) 
14711307

>  <reference.doi>  (170) 
None

>  <reference.chembl_id>  (170) 
CHEMBL1148379

>  <reference.journal>  (170) 
J. Med. Chem.

>  <reference.year>  (170) 
2004

$$$$

     RDKit          3D

 25 27  0  0  0  0  0  0  0  0999 V2000
   -6.9331    2.0853    1.7536 N   0  0  0  0  0  0  0  0  0  0  0  0
   -6.0014    1.4003    0.9109 C   0  0  0  0  0  0  0  0  0  0  0  0
   -5.7233    1.8150   -0.3343 N   0  0  0  0  0  0  0  0  0  0  0  0
   -4.8512    1.1913   -1.1508 C   0  0  0  0  0  0  0  0  0  0  0  0
   -4.1947    0.0669   -0.7142 C   0  0  0  0  0  0  0  0  0  0  0  0
   -3.2186   -0.6779   -1.5525 C   0  0  0  0  0  0  0  0  0  0  0  0
   -1.8647   -0.3292   -1.0478 C   0  0  0  0  0  0  0  0  0  0  0  0
   -1.2219   -1.0360   -0.0624 C   0  0  0  0  0  0  0  0  0  0  0  0
    0.0299   -0.6249    0.3281 C   0  0  0  0  0  0  0  0  0  0  0  0
    0.6934    0.4579   -0.2045 C   0  0  0  0  0  0  0  0  0  0  0  0
    1.9713    0.8515    0.2167 O   0  0  0  0  0  0  0  0  0  0  0  0
    2.5580    0.0656    1.2367 C   0  0  0  0  0  0  0  0  0  0  0  0
    2.6908   -1.3764    0.7358 C   0  0  0  0  0  0  0  0  0  0  0  0
    3.5541   -1.4249   -0.4859 C   0  0  0  0  0  0  0  0  0  0  0  0
    4.9337   -0.8996   -0.1941 C   0  0  0  0  0  0  0  0  0  0  0  0
    5.9168   -1.7762    0.2362 C   0  0  0  0  0  0  0  0  0  0  0  0
    7.1954   -1.3541    0.5179 C   0  0  0  0  0  0  0  0  0  0  0  0
    7.5299   -0.0238    0.3745 C   0  0  0  0  0  0  0  0  0  0  0  0
    6.5421    0.8364   -0.0542 C   0  0  0  0  0  0  0  0  0  0  0  0
    5.2720    0.4212   -0.3348 C   0  0  0  0  0  0  0  0  0  0  0  0
    0.0248    1.1586   -1.1999 C   0  0  0  0  0  0  0  0  0  0  0  0
   -1.2303    0.7572   -1.6006 C   0  0  0  0  0  0  0  0  0  0  0  0
   -4.4743   -0.3668    0.5650 C   0  0  0  0  0  0  0  0  0  0  0  0
   -3.8344   -1.5172    1.0783 N   0  0  0  0  0  0  0  0  0  0  0  0
   -5.3641    0.2998    1.3493 N   0  0  0  0  0  0  0  0  0  0  0  0
  1  2  1  0
  2  3  2  0
  3  4  1  0
  4  5  2  0
  5  6  1  0
  6  7  1  0
  7  8  2  0
  8  9  1  0
  9 10  2  0
 10 11  1  0
 11 12  1  0
 12 13  1  0
 13 14  1  0
 14 15  1  0
 15 16  2  0
 16 17  1  0
 17 18  2  0
 18 19  1  0
 19 20  2  0
 10 21  1  0
 21 22  2  0
  5 23  1  0
 23 24  1  0
 23 25  2  0
 25  2  1  0
 22  7  1  0
 20 15  1  0
M  END
>  <zinc_id>  (171) 
ZINC000005974507

>  <ortholog_name>  (171) 
DRTS_PLAFK

>  <gene_name>  (171) 
DRTS_PLAFK

>  <affinity>  (171) 
5.52

>  <chembldocid>  (171) 
17636

>  <title>  (171) 
None

>  <reference.pubmed_id>  (171) 
14711307

>  <reference.doi>  (171) 
None

>  <reference.chembl_id>  (171) 
CHEMBL1148379

>  <reference.journal>  (171) 
J. Med. Chem.

>  <reference.year>  (171) 
2004

$$$$

     RDKit          3D

 25 27  0  0  0  0  0  0  0  0999 V2000
   -6.9331    2.0853    1.7536 N   0  0  0  0  0  0  0  0  0  0  0  0
   -6.0014    1.4003    0.9109 C   0  0  0  0  0  0  0  0  0  0  0  0
   -5.7233    1.8150   -0.3343 N   0  0  0  0  0  0  0  0  0  0  0  0
   -4.8512    1.1913   -1.1508 C   0  0  0  0  0  0  0  0  0  0  0  0
   -4.1947    0.0669   -0.7142 C   0  0  0  0  0  0  0  0  0  0  0  0
   -3.2186   -0.6779   -1.5525 C   0  0  0  0  0  0  0  0  0  0  0  0
   -1.8647   -0.3292   -1.0478 C   0  0  0  0  0  0  0  0  0  0  0  0
   -1.2219   -1.0360   -0.0624 C   0  0  0  0  0  0  0  0  0  0  0  0
    0.0299   -0.6249    0.3281 C   0  0  0  0  0  0  0  0  0  0  0  0
    0.6934    0.4579   -0.2045 C   0  0  0  0  0  0  0  0  0  0  0  0
    1.9713    0.8515    0.2167 O   0  0  0  0  0  0  0  0  0  0  0  0
    2.5580    0.0656    1.2367 C   0  0  0  0  0  0  0  0  0  0  0  0
    2.6908   -1.3764    0.7358 C   0  0  0  0  0  0  0  0  0  0  0  0
    3.5541   -1.4249   -0.4859 C   0  0  0  0  0  0  0  0  0  0  0  0
    4.9337   -0.8996   -0.1941 C   0  0  0  0  0  0  0  0  0  0  0  0
    5.9168   -1.7762    0.2362 C   0  0  0  0  0  0  0  0  0  0  0  0
    7.1954   -1.3541    0.5179 C   0  0  0  0  0  0  0  0  0  0  0  0
    7.5299   -0.0238    0.3745 C   0  0  0  0  0  0  0  0  0  0  0  0
    6.5421    0.8364   -0.0542 C   0  0  0  0  0  0  0  0  0  0  0  0
    5.2720    0.4212   -0.3348 C   0  0  0  0  0  0  0  0  0  0  0  0
    0.0248    1.1586   -1.1999 C   0  0  0  0  0  0  0  0  0  0  0  0
   -1.2303    0.7572   -1.6006 C   0  0  0  0  0  0  0  0  0  0  0  0
   -4.4743   -0.3668    0.5650 C   0  0  0  0  0  0  0  0  0  0  0  0
   -3.8344   -1.5172    1.0783 N   0  0  0  0  0  0  0  0  0  0  0  0
   -5.3641    0.2998    1.3493 N   0  0  0  0  0  0  0  0  0  0  0  0
  1  2  1  0
  2  3  2  0
  3  4  1  0
  4  5  2  0
  5  6  1  0
  6  7  1  0
  7  8  2  0
  8  9  1  0
  9 10  2  0
 10 11  1  0
 11 12  1  0
 12 13  1  0
 13 14  1  0
 14 15  1  0
 15 16  2  0
 16 17  1  0
 17 18  2  0
 18 19  1  0
 19 20  2  0
 10 21  1  0
 21 22  2  0
  5 23  1  0
 23 24  1  0
 23 25  2  0
 25  2  1  0
 22  7  1  0
 20 15  1  0
M  END
>  <zinc_id>  (172) 
ZINC000005974507

>  <ortholog_name>  (172) 
DRTS_PLAFK

>  <gene_name>  (172) 
DRTS_PLAFK

>  <affinity>  (172) 
8.23

>  <chembldocid>  (172) 
17636

>  <title>  (172) 
None

>  <reference.pubmed_id>  (172) 
14711307

>  <reference.doi>  (172) 
None

>  <reference.chembl_id>  (172) 
CHEMBL1148379

>  <reference.journal>  (172) 
J. Med. Chem.

>  <reference.year>  (172) 
2004

$$$$

     RDKit          3D

 25 27  0  0  0  0  0  0  0  0999 V2000
   -6.9331    2.0853    1.7536 N   0  0  0  0  0  0  0  0  0  0  0  0
   -6.0014    1.4003    0.9109 C   0  0  0  0  0  0  0  0  0  0  0  0
   -5.7233    1.8150   -0.3343 N   0  0  0  0  0  0  0  0  0  0  0  0
   -4.8512    1.1913   -1.1508 C   0  0  0  0  0  0  0  0  0  0  0  0
   -4.1947    0.0669   -0.7142 C   0  0  0  0  0  0  0  0  0  0  0  0
   -3.2186   -0.6779   -1.5525 C   0  0  0  0  0  0  0  0  0  0  0  0
   -1.8647   -0.3292   -1.0478 C   0  0  0  0  0  0  0  0  0  0  0  0
   -1.2219   -1.0360   -0.0624 C   0  0  0  0  0  0  0  0  0  0  0  0
    0.0299   -0.6249    0.3281 C   0  0  0  0  0  0  0  0  0  0  0  0
    0.6934    0.4579   -0.2045 C   0  0  0  0  0  0  0  0  0  0  0  0
    1.9713    0.8515    0.2167 O   0  0  0  0  0  0  0  0  0  0  0  0
    2.5580    0.0656    1.2367 C   0  0  0  0  0  0  0  0  0  0  0  0
    2.6908   -1.3764    0.7358 C   0  0  0  0  0  0  0  0  0  0  0  0
    3.5541   -1.4249   -0.4859 C   0  0  0  0  0  0  0  0  0  0  0  0
    4.9337   -0.8996   -0.1941 C   0  0  0  0  0  0  0  0  0  0  0  0
    5.9168   -1.7762    0.2362 C   0  0  0  0  0  0  0  0  0  0  0  0
    7.1954   -1.3541    0.5179 C   0  0  0  0  0  0  0  0  0  0  0  0
    7.5299   -0.0238    0.3745 C   0  0  0  0  0  0  0  0  0  0  0  0
    6.5421    0.8364   -0.0542 C   0  0  0  0  0  0  0  0  0  0  0  0
    5.2720    0.4212   -0.3348 C   0  0  0  0  0  0  0  0  0  0  0  0
    0.0248    1.1586   -1.1999 C   0  0  0  0  0  0  0  0  0  0  0  0
   -1.2303    0.7572   -1.6006 C   0  0  0  0  0  0  0  0  0  0  0  0
   -4.4743   -0.3668    0.5650 C   0  0  0  0  0  0  0  0  0  0  0  0
   -3.8344   -1.5172    1.0783 N   0  0  0  0  0  0  0  0  0  0  0  0
   -5.3641    0.2998    1.3493 N   0  0  0  0  0  0  0  0  0  0  0  0
  1  2  1  0
  2  3  2  0
  3  4  1  0
  4  5  2  0
  5  6  1  0
  6  7  1  0
  7  8  2  0
  8  9  1  0
  9 10  2  0
 10 11  1  0
 11 12  1  0
 12 13  1  0
 13 14  1  0
 14 15  1  0
 15 16  2  0
 16 17  1  0
 17 18  2  0
 18 19  1  0
 19 20  2  0
 10 21  1  0
 21 22  2  0
  5 23  1  0
 23 24  1  0
 23 25  2  0
 25  2  1  0
 22  7  1  0
 20 15  1  0
M  END
>  <zinc_id>  (173) 
ZINC000005974507

>  <ortholog_name>  (173) 
DRTS_PLAFK

>  <gene_name>  (173) 
DRTS_PLAFK

>  <affinity>  (173) 
7.24

>  <chembldocid>  (173) 
17636

>  <title>  (173) 
None

>  <reference.pubmed_id>  (173) 
14711307

>  <reference.doi>  (173) 
None

>  <reference.chembl_id>  (173) 
CHEMBL1148379

>  <reference.journal>  (173) 
J. Med. Chem.

>  <reference.year>  (173) 
2004

$$$$

     RDKit          3D

 25 27  0  0  0  0  0  0  0  0999 V2000
   -6.9331    2.0853    1.7536 N   0  0  0  0  0  0  0  0  0  0  0  0
   -6.0014    1.4003    0.9109 C   0  0  0  0  0  0  0  0  0  0  0  0
   -5.7233    1.8150   -0.3343 N   0  0  0  0  0  0  0  0  0  0  0  0
   -4.8512    1.1913   -1.1508 C   0  0  0  0  0  0  0  0  0  0  0  0
   -4.1947    0.0669   -0.7142 C   0  0  0  0  0  0  0  0  0  0  0  0
   -3.2186   -0.6779   -1.5525 C   0  0  0  0  0  0  0  0  0  0  0  0
   -1.8647   -0.3292   -1.0478 C   0  0  0  0  0  0  0  0  0  0  0  0
   -1.2219   -1.0360   -0.0624 C   0  0  0  0  0  0  0  0  0  0  0  0
    0.0299   -0.6249    0.3281 C   0  0  0  0  0  0  0  0  0  0  0  0
    0.6934    0.4579   -0.2045 C   0  0  0  0  0  0  0  0  0  0  0  0
    1.9713    0.8515    0.2167 O   0  0  0  0  0  0  0  0  0  0  0  0
    2.5580    0.0656    1.2367 C   0  0  0  0  0  0  0  0  0  0  0  0
    2.6908   -1.3764    0.7358 C   0  0  0  0  0  0  0  0  0  0  0  0
    3.5541   -1.4249   -0.4859 C   0  0  0  0  0  0  0  0  0  0  0  0
    4.9337   -0.8996   -0.1941 C   0  0  0  0  0  0  0  0  0  0  0  0
    5.9168   -1.7762    0.2362 C   0  0  0  0  0  0  0  0  0  0  0  0
    7.1954   -1.3541    0.5179 C   0  0  0  0  0  0  0  0  0  0  0  0
    7.5299   -0.0238    0.3745 C   0  0  0  0  0  0  0  0  0  0  0  0
    6.5421    0.8364   -0.0542 C   0  0  0  0  0  0  0  0  0  0  0  0
    5.2720    0.4212   -0.3348 C   0  0  0  0  0  0  0  0  0  0  0  0
    0.0248    1.1586   -1.1999 C   0  0  0  0  0  0  0  0  0  0  0  0
   -1.2303    0.7572   -1.6006 C   0  0  0  0  0  0  0  0  0  0  0  0
   -4.4743   -0.3668    0.5650 C   0  0  0  0  0  0  0  0  0  0  0  0
   -3.8344   -1.5172    1.0783 N   0  0  0  0  0  0  0  0  0  0  0  0
   -5.3641    0.2998    1.3493 N   0  0  0  0  0  0  0  0  0  0  0  0
  1  2  1  0
  2  3  2  0
  3  4  1  0
  4  5  2  0
  5  6  1  0
  6  7  1  0
  7  8  2  0
  8  9  1  0
  9 10  2  0
 10 11  1  0
 11 12  1  0
 12 13  1  0
 13 14  1  0
 14 15  1  0
 15 16  2  0
 16 17  1  0
 17 18  2  0
 18 19  1  0
 19 20  2  0
 10 21  1  0
 21 22  2  0
  5 23  1  0
 23 24  1  0
 23 25  2  0
 25  2  1  0
 22  7  1  0
 20 15  1  0
M  END
>  <zinc_id>  (174) 
ZINC000005974507

>  <ortholog_name>  (174) 
DRTS_PLAFK

>  <gene_name>  (174) 
DRTS_PLAFK

>  <affinity>  (174) 
6.10

>  <chembldocid>  (174) 
17636

>  <title>  (174) 
None

>  <reference.pubmed_id>  (174) 
14711307

>  <reference.doi>  (174) 
None

>  <reference.chembl_id>  (174) 
CHEMBL1148379

>  <reference.journal>  (174) 
J. Med. Chem.

>  <reference.year>  (174) 
2004

$$$$

     RDKit          3D

 23 25  0  0  0  0  0  0  0  0999 V2000
    6.3176    1.8421    1.6387 N   0  0  0  0  0  0  0  0  0  0  0  0
    5.4206    0.9918    0.9119 C   0  0  0  0  0  0  0  0  0  0  0  0
    4.1000    1.2437    0.8728 N   0  0  0  0  0  0  0  0  0  0  0  0
    3.2145    0.4816    0.2083 C   0  0  0  0  0  0  0  0  0  0  0  0
    3.6529   -0.6300   -0.4836 C   0  0  0  0  0  0  0  0  0  0  0  0
    2.7348   -1.5205   -1.2414 C   0  0  0  0  0  0  0  0  0  0  0  0
    1.3499   -1.0441   -1.1367 C   0  0  0  0  0  0  0  0  0  0  0  0
    0.5846   -1.5265   -0.0843 C   0  0  0  0  0  0  0  0  0  0  0  0
   -0.7204   -1.1417    0.0997 C   0  0  0  0  0  0  0  0  0  0  0  0
   -1.2845   -0.2475   -0.7914 C   0  0  0  0  0  0  0  0  0  0  0  0
   -2.6076    0.1268   -0.5836 O   0  0  0  0  0  0  0  0  0  0  0  0
   -3.3767   -0.3694    0.4891 C   0  0  0  0  0  0  0  0  0  0  0  0
   -4.7378    0.2200    0.4302 C   0  0  0  0  0  0  0  0  0  0  0  0
   -5.7017   -0.1045    1.3786 C   0  0  0  0  0  0  0  0  0  0  0  0
   -6.9478    0.4607    1.2907 C   0  0  0  0  0  0  0  0  0  0  0  0
   -7.2628    1.3437    0.2806 C   0  0  0  0  0  0  0  0  0  0  0  0
   -6.3145    1.6762   -0.6700 C   0  0  0  0  0  0  0  0  0  0  0  0
   -5.0624    1.1043   -0.5762 C   0  0  0  0  0  0  0  0  0  0  0  0
   -0.5322    0.2348   -1.8366 C   0  0  0  0  0  0  0  0  0  0  0  0
    0.7882   -0.1449   -2.0358 C   0  0  0  0  0  0  0  0  0  0  0  0
    5.0071   -0.8874   -0.4430 C   0  0  0  0  0  0  0  0  0  0  0  0
    5.5152   -2.0216   -1.1393 N   0  0  0  0  0  0  0  0  0  0  0  0
    5.8629   -0.0874    0.2427 N   0  0  0  0  0  0  0  0  0  0  0  0
  1  2  1  0
  2  3  2  0
  3  4  1  0
  4  5  2  0
  5  6  1  0
  6  7  1  0
  7  8  2  0
  8  9  1  0
  9 10  2  0
 10 11  1  0
 11 12  1  0
 12 13  1  0
 13 14  2  0
 14 15  1  0
 15 16  2  0
 16 17  1  0
 17 18  2  0
 10 19  1  0
 19 20  2  0
  5 21  1  0
 21 22  1  0
 21 23  2  0
 23  2  1  0
 20  7  1  0
 18 13  1  0
M  END
>  <zinc_id>  (175) 
ZINC000005974561

>  <ortholog_name>  (175) 
DRTS_PLAFK

>  <gene_name>  (175) 
DRTS_PLAFK

>  <affinity>  (175) 
7.00

>  <chembldocid>  (175) 
17636

>  <title>  (175) 
None

>  <reference.pubmed_id>  (175) 
14711307

>  <reference.doi>  (175) 
None

>  <reference.chembl_id>  (175) 
CHEMBL1148379

>  <reference.journal>  (175) 
J. Med. Chem.

>  <reference.year>  (175) 
2004

$$$$

     RDKit          3D

 23 25  0  0  0  0  0  0  0  0999 V2000
    6.3176    1.8421    1.6387 N   0  0  0  0  0  0  0  0  0  0  0  0
    5.4206    0.9918    0.9119 C   0  0  0  0  0  0  0  0  0  0  0  0
    4.1000    1.2437    0.8728 N   0  0  0  0  0  0  0  0  0  0  0  0
    3.2145    0.4816    0.2083 C   0  0  0  0  0  0  0  0  0  0  0  0
    3.6529   -0.6300   -0.4836 C   0  0  0  0  0  0  0  0  0  0  0  0
    2.7348   -1.5205   -1.2414 C   0  0  0  0  0  0  0  0  0  0  0  0
    1.3499   -1.0441   -1.1367 C   0  0  0  0  0  0  0  0  0  0  0  0
    0.5846   -1.5265   -0.0843 C   0  0  0  0  0  0  0  0  0  0  0  0
   -0.7204   -1.1417    0.0997 C   0  0  0  0  0  0  0  0  0  0  0  0
   -1.2845   -0.2475   -0.7914 C   0  0  0  0  0  0  0  0  0  0  0  0
   -2.6076    0.1268   -0.5836 O   0  0  0  0  0  0  0  0  0  0  0  0
   -3.3767   -0.3694    0.4891 C   0  0  0  0  0  0  0  0  0  0  0  0
   -4.7378    0.2200    0.4302 C   0  0  0  0  0  0  0  0  0  0  0  0
   -5.7017   -0.1045    1.3786 C   0  0  0  0  0  0  0  0  0  0  0  0
   -6.9478    0.4607    1.2907 C   0  0  0  0  0  0  0  0  0  0  0  0
   -7.2628    1.3437    0.2806 C   0  0  0  0  0  0  0  0  0  0  0  0
   -6.3145    1.6762   -0.6700 C   0  0  0  0  0  0  0  0  0  0  0  0
   -5.0624    1.1043   -0.5762 C   0  0  0  0  0  0  0  0  0  0  0  0
   -0.5322    0.2348   -1.8366 C   0  0  0  0  0  0  0  0  0  0  0  0
    0.7882   -0.1449   -2.0358 C   0  0  0  0  0  0  0  0  0  0  0  0
    5.0071   -0.8874   -0.4430 C   0  0  0  0  0  0  0  0  0  0  0  0
    5.5152   -2.0216   -1.1393 N   0  0  0  0  0  0  0  0  0  0  0  0
    5.8629   -0.0874    0.2427 N   0  0  0  0  0  0  0  0  0  0  0  0
  1  2  1  0
  2  3  2  0
  3  4  1  0
  4  5  2  0
  5  6  1  0
  6  7  1  0
  7  8  2  0
  8  9  1  0
  9 10  2  0
 10 11  1  0
 11 12  1  0
 12 13  1  0
 13 14  2  0
 14 15  1  0
 15 16  2  0
 16 17  1  0
 17 18  2  0
 10 19  1  0
 19 20  2  0
  5 21  1  0
 21 22  1  0
 21 23  2  0
 23  2  1  0
 20  7  1  0
 18 13  1  0
M  END
>  <zinc_id>  (176) 
ZINC000005974561

>  <ortholog_name>  (176) 
DRTS_PLAFK

>  <gene_name>  (176) 
DRTS_PLAFK

>  <affinity>  (176) 
6.96

>  <chembldocid>  (176) 
17636

>  <title>  (176) 
None

>  <reference.pubmed_id>  (176) 
14711307

>  <reference.doi>  (176) 
None

>  <reference.chembl_id>  (176) 
CHEMBL1148379

>  <reference.journal>  (176) 
J. Med. Chem.

>  <reference.year>  (176) 
2004

$$$$

     RDKit          3D

 23 25  0  0  0  0  0  0  0  0999 V2000
    6.3176    1.8421    1.6387 N   0  0  0  0  0  0  0  0  0  0  0  0
    5.4206    0.9918    0.9119 C   0  0  0  0  0  0  0  0  0  0  0  0
    4.1000    1.2437    0.8728 N   0  0  0  0  0  0  0  0  0  0  0  0
    3.2145    0.4816    0.2083 C   0  0  0  0  0  0  0  0  0  0  0  0
    3.6529   -0.6300   -0.4836 C   0  0  0  0  0  0  0  0  0  0  0  0
    2.7348   -1.5205   -1.2414 C   0  0  0  0  0  0  0  0  0  0  0  0
    1.3499   -1.0441   -1.1367 C   0  0  0  0  0  0  0  0  0  0  0  0
    0.5846   -1.5265   -0.0843 C   0  0  0  0  0  0  0  0  0  0  0  0
   -0.7204   -1.1417    0.0997 C   0  0  0  0  0  0  0  0  0  0  0  0
   -1.2845   -0.2475   -0.7914 C   0  0  0  0  0  0  0  0  0  0  0  0
   -2.6076    0.1268   -0.5836 O   0  0  0  0  0  0  0  0  0  0  0  0
   -3.3767   -0.3694    0.4891 C   0  0  0  0  0  0  0  0  0  0  0  0
   -4.7378    0.2200    0.4302 C   0  0  0  0  0  0  0  0  0  0  0  0
   -5.7017   -0.1045    1.3786 C   0  0  0  0  0  0  0  0  0  0  0  0
   -6.9478    0.4607    1.2907 C   0  0  0  0  0  0  0  0  0  0  0  0
   -7.2628    1.3437    0.2806 C   0  0  0  0  0  0  0  0  0  0  0  0
   -6.3145    1.6762   -0.6700 C   0  0  0  0  0  0  0  0  0  0  0  0
   -5.0624    1.1043   -0.5762 C   0  0  0  0  0  0  0  0  0  0  0  0
   -0.5322    0.2348   -1.8366 C   0  0  0  0  0  0  0  0  0  0  0  0
    0.7882   -0.1449   -2.0358 C   0  0  0  0  0  0  0  0  0  0  0  0
    5.0071   -0.8874   -0.4430 C   0  0  0  0  0  0  0  0  0  0  0  0
    5.5152   -2.0216   -1.1393 N   0  0  0  0  0  0  0  0  0  0  0  0
    5.8629   -0.0874    0.2427 N   0  0  0  0  0  0  0  0  0  0  0  0
  1  2  1  0
  2  3  2  0
  3  4  1  0
  4  5  2  0
  5  6  1  0
  6  7  1  0
  7  8  2  0
  8  9  1  0
  9 10  2  0
 10 11  1  0
 11 12  1  0
 12 13  1  0
 13 14  2  0
 14 15  1  0
 15 16  2  0
 16 17  1  0
 17 18  2  0
 10 19  1  0
 19 20  2  0
  5 21  1  0
 21 22  1  0
 21 23  2  0
 23  2  1  0
 20  7  1  0
 18 13  1  0
M  END
>  <zinc_id>  (177) 
ZINC000005974561

>  <ortholog_name>  (177) 
DRTS_PLAFK

>  <gene_name>  (177) 
DRTS_PLAFK

>  <affinity>  (177) 
6.89

>  <chembldocid>  (177) 
17636

>  <title>  (177) 
None

>  <reference.pubmed_id>  (177) 
14711307

>  <reference.doi>  (177) 
None

>  <reference.chembl_id>  (177) 
CHEMBL1148379

>  <reference.journal>  (177) 
J. Med. Chem.

>  <reference.year>  (177) 
2004

$$$$

     RDKit          3D

 23 25  0  0  0  0  0  0  0  0999 V2000
    6.3176    1.8421    1.6387 N   0  0  0  0  0  0  0  0  0  0  0  0
    5.4206    0.9918    0.9119 C   0  0  0  0  0  0  0  0  0  0  0  0
    4.1000    1.2437    0.8728 N   0  0  0  0  0  0  0  0  0  0  0  0
    3.2145    0.4816    0.2083 C   0  0  0  0  0  0  0  0  0  0  0  0
    3.6529   -0.6300   -0.4836 C   0  0  0  0  0  0  0  0  0  0  0  0
    2.7348   -1.5205   -1.2414 C   0  0  0  0  0  0  0  0  0  0  0  0
    1.3499   -1.0441   -1.1367 C   0  0  0  0  0  0  0  0  0  0  0  0
    0.5846   -1.5265   -0.0843 C   0  0  0  0  0  0  0  0  0  0  0  0
   -0.7204   -1.1417    0.0997 C   0  0  0  0  0  0  0  0  0  0  0  0
   -1.2845   -0.2475   -0.7914 C   0  0  0  0  0  0  0  0  0  0  0  0
   -2.6076    0.1268   -0.5836 O   0  0  0  0  0  0  0  0  0  0  0  0
   -3.3767   -0.3694    0.4891 C   0  0  0  0  0  0  0  0  0  0  0  0
   -4.7378    0.2200    0.4302 C   0  0  0  0  0  0  0  0  0  0  0  0
   -5.7017   -0.1045    1.3786 C   0  0  0  0  0  0  0  0  0  0  0  0
   -6.9478    0.4607    1.2907 C   0  0  0  0  0  0  0  0  0  0  0  0
   -7.2628    1.3437    0.2806 C   0  0  0  0  0  0  0  0  0  0  0  0
   -6.3145    1.6762   -0.6700 C   0  0  0  0  0  0  0  0  0  0  0  0
   -5.0624    1.1043   -0.5762 C   0  0  0  0  0  0  0  0  0  0  0  0
   -0.5322    0.2348   -1.8366 C   0  0  0  0  0  0  0  0  0  0  0  0
    0.7882   -0.1449   -2.0358 C   0  0  0  0  0  0  0  0  0  0  0  0
    5.0071   -0.8874   -0.4430 C   0  0  0  0  0  0  0  0  0  0  0  0
    5.5152   -2.0216   -1.1393 N   0  0  0  0  0  0  0  0  0  0  0  0
    5.8629   -0.0874    0.2427 N   0  0  0  0  0  0  0  0  0  0  0  0
  1  2  1  0
  2  3  2  0
  3  4  1  0
  4  5  2  0
  5  6  1  0
  6  7  1  0
  7  8  2  0
  8  9  1  0
  9 10  2  0
 10 11  1  0
 11 12  1  0
 12 13  1  0
 13 14  2  0
 14 15  1  0
 15 16  2  0
 16 17  1  0
 17 18  2  0
 10 19  1  0
 19 20  2  0
  5 21  1  0
 21 22  1  0
 21 23  2  0
 23  2  1  0
 20  7  1  0
 18 13  1  0
M  END
>  <zinc_id>  (178) 
ZINC000005974561

>  <ortholog_name>  (178) 
DRTS_PLAFK

>  <gene_name>  (178) 
DRTS_PLAFK

>  <affinity>  (178) 
5.64

>  <chembldocid>  (178) 
17636

>  <title>  (178) 
None

>  <reference.pubmed_id>  (178) 
14711307

>  <reference.doi>  (178) 
None

>  <reference.chembl_id>  (178) 
CHEMBL1148379

>  <reference.journal>  (178) 
J. Med. Chem.

>  <reference.year>  (178) 
2004

$$$$

     RDKit          3D

 23 25  0  0  0  0  0  0  0  0999 V2000
    6.3176    1.8421    1.6387 N   0  0  0  0  0  0  0  0  0  0  0  0
    5.4206    0.9918    0.9119 C   0  0  0  0  0  0  0  0  0  0  0  0
    4.1000    1.2437    0.8728 N   0  0  0  0  0  0  0  0  0  0  0  0
    3.2145    0.4816    0.2083 C   0  0  0  0  0  0  0  0  0  0  0  0
    3.6529   -0.6300   -0.4836 C   0  0  0  0  0  0  0  0  0  0  0  0
    2.7348   -1.5205   -1.2414 C   0  0  0  0  0  0  0  0  0  0  0  0
    1.3499   -1.0441   -1.1367 C   0  0  0  0  0  0  0  0  0  0  0  0
    0.5846   -1.5265   -0.0843 C   0  0  0  0  0  0  0  0  0  0  0  0
   -0.7204   -1.1417    0.0997 C   0  0  0  0  0  0  0  0  0  0  0  0
   -1.2845   -0.2475   -0.7914 C   0  0  0  0  0  0  0  0  0  0  0  0
   -2.6076    0.1268   -0.5836 O   0  0  0  0  0  0  0  0  0  0  0  0
   -3.3767   -0.3694    0.4891 C   0  0  0  0  0  0  0  0  0  0  0  0
   -4.7378    0.2200    0.4302 C   0  0  0  0  0  0  0  0  0  0  0  0
   -5.7017   -0.1045    1.3786 C   0  0  0  0  0  0  0  0  0  0  0  0
   -6.9478    0.4607    1.2907 C   0  0  0  0  0  0  0  0  0  0  0  0
   -7.2628    1.3437    0.2806 C   0  0  0  0  0  0  0  0  0  0  0  0
   -6.3145    1.6762   -0.6700 C   0  0  0  0  0  0  0  0  0  0  0  0
   -5.0624    1.1043   -0.5762 C   0  0  0  0  0  0  0  0  0  0  0  0
   -0.5322    0.2348   -1.8366 C   0  0  0  0  0  0  0  0  0  0  0  0
    0.7882   -0.1449   -2.0358 C   0  0  0  0  0  0  0  0  0  0  0  0
    5.0071   -0.8874   -0.4430 C   0  0  0  0  0  0  0  0  0  0  0  0
    5.5152   -2.0216   -1.1393 N   0  0  0  0  0  0  0  0  0  0  0  0
    5.8629   -0.0874    0.2427 N   0  0  0  0  0  0  0  0  0  0  0  0
  1  2  1  0
  2  3  2  0
  3  4  1  0
  4  5  2  0
  5  6  1  0
  6  7  1  0
  7  8  2  0
  8  9  1  0
  9 10  2  0
 10 11  1  0
 11 12  1  0
 12 13  1  0
 13 14  2  0
 14 15  1  0
 15 16  2  0
 16 17  1  0
 17 18  2  0
 10 19  1  0
 19 20  2  0
  5 21  1  0
 21 22  1  0
 21 23  2  0
 23  2  1  0
 20  7  1  0
 18 13  1  0
M  END
>  <zinc_id>  (179) 
ZINC000005974561

>  <ortholog_name>  (179) 
DRTS_PLAFK

>  <gene_name>  (179) 
DRTS_PLAFK

>  <affinity>  (179) 
5.33

>  <chembldocid>  (179) 
17636

>  <title>  (179) 
None

>  <reference.pubmed_id>  (179) 
14711307

>  <reference.doi>  (179) 
None

>  <reference.chembl_id>  (179) 
CHEMBL1148379

>  <reference.journal>  (179) 
J. Med. Chem.

>  <reference.year>  (179) 
2004

$$$$

     RDKit          3D

 23 25  0  0  0  0  0  0  0  0999 V2000
    6.3176    1.8421    1.6387 N   0  0  0  0  0  0  0  0  0  0  0  0
    5.4206    0.9918    0.9119 C   0  0  0  0  0  0  0  0  0  0  0  0
    4.1000    1.2437    0.8728 N   0  0  0  0  0  0  0  0  0  0  0  0
    3.2145    0.4816    0.2083 C   0  0  0  0  0  0  0  0  0  0  0  0
    3.6529   -0.6300   -0.4836 C   0  0  0  0  0  0  0  0  0  0  0  0
    2.7348   -1.5205   -1.2414 C   0  0  0  0  0  0  0  0  0  0  0  0
    1.3499   -1.0441   -1.1367 C   0  0  0  0  0  0  0  0  0  0  0  0
    0.5846   -1.5265   -0.0843 C   0  0  0  0  0  0  0  0  0  0  0  0
   -0.7204   -1.1417    0.0997 C   0  0  0  0  0  0  0  0  0  0  0  0
   -1.2845   -0.2475   -0.7914 C   0  0  0  0  0  0  0  0  0  0  0  0
   -2.6076    0.1268   -0.5836 O   0  0  0  0  0  0  0  0  0  0  0  0
   -3.3767   -0.3694    0.4891 C   0  0  0  0  0  0  0  0  0  0  0  0
   -4.7378    0.2200    0.4302 C   0  0  0  0  0  0  0  0  0  0  0  0
   -5.7017   -0.1045    1.3786 C   0  0  0  0  0  0  0  0  0  0  0  0
   -6.9478    0.4607    1.2907 C   0  0  0  0  0  0  0  0  0  0  0  0
   -7.2628    1.3437    0.2806 C   0  0  0  0  0  0  0  0  0  0  0  0
   -6.3145    1.6762   -0.6700 C   0  0  0  0  0  0  0  0  0  0  0  0
   -5.0624    1.1043   -0.5762 C   0  0  0  0  0  0  0  0  0  0  0  0
   -0.5322    0.2348   -1.8366 C   0  0  0  0  0  0  0  0  0  0  0  0
    0.7882   -0.1449   -2.0358 C   0  0  0  0  0  0  0  0  0  0  0  0
    5.0071   -0.8874   -0.4430 C   0  0  0  0  0  0  0  0  0  0  0  0
    5.5152   -2.0216   -1.1393 N   0  0  0  0  0  0  0  0  0  0  0  0
    5.8629   -0.0874    0.2427 N   0  0  0  0  0  0  0  0  0  0  0  0
  1  2  1  0
  2  3  2  0
  3  4  1  0
  4  5  2  0
  5  6  1  0
  6  7  1  0
  7  8  2  0
  8  9  1  0
  9 10  2  0
 10 11  1  0
 11 12  1  0
 12 13  1  0
 13 14  2  0
 14 15  1  0
 15 16  2  0
 16 17  1  0
 17 18  2  0
 10 19  1  0
 19 20  2  0
  5 21  1  0
 21 22  1  0
 21 23  2  0
 23  2  1  0
 20  7  1  0
 18 13  1  0
M  END
>  <zinc_id>  (180) 
ZINC000005974561

>  <ortholog_name>  (180) 
DRTS_PLAFK

>  <gene_name>  (180) 
DRTS_PLAFK

>  <affinity>  (180) 
8.19

>  <chembldocid>  (180) 
17636

>  <title>  (180) 
None

>  <reference.pubmed_id>  (180) 
14711307

>  <reference.doi>  (180) 
None

>  <reference.chembl_id>  (180) 
CHEMBL1148379

>  <reference.journal>  (180) 
J. Med. Chem.

>  <reference.year>  (180) 
2004

$$$$

     RDKit          3D

 23 25  0  0  0  0  0  0  0  0999 V2000
    6.3176    1.8421    1.6387 N   0  0  0  0  0  0  0  0  0  0  0  0
    5.4206    0.9918    0.9119 C   0  0  0  0  0  0  0  0  0  0  0  0
    4.1000    1.2437    0.8728 N   0  0  0  0  0  0  0  0  0  0  0  0
    3.2145    0.4816    0.2083 C   0  0  0  0  0  0  0  0  0  0  0  0
    3.6529   -0.6300   -0.4836 C   0  0  0  0  0  0  0  0  0  0  0  0
    2.7348   -1.5205   -1.2414 C   0  0  0  0  0  0  0  0  0  0  0  0
    1.3499   -1.0441   -1.1367 C   0  0  0  0  0  0  0  0  0  0  0  0
    0.5846   -1.5265   -0.0843 C   0  0  0  0  0  0  0  0  0  0  0  0
   -0.7204   -1.1417    0.0997 C   0  0  0  0  0  0  0  0  0  0  0  0
   -1.2845   -0.2475   -0.7914 C   0  0  0  0  0  0  0  0  0  0  0  0
   -2.6076    0.1268   -0.5836 O   0  0  0  0  0  0  0  0  0  0  0  0
   -3.3767   -0.3694    0.4891 C   0  0  0  0  0  0  0  0  0  0  0  0
   -4.7378    0.2200    0.4302 C   0  0  0  0  0  0  0  0  0  0  0  0
   -5.7017   -0.1045    1.3786 C   0  0  0  0  0  0  0  0  0  0  0  0
   -6.9478    0.4607    1.2907 C   0  0  0  0  0  0  0  0  0  0  0  0
   -7.2628    1.3437    0.2806 C   0  0  0  0  0  0  0  0  0  0  0  0
   -6.3145    1.6762   -0.6700 C   0  0  0  0  0  0  0  0  0  0  0  0
   -5.0624    1.1043   -0.5762 C   0  0  0  0  0  0  0  0  0  0  0  0
   -0.5322    0.2348   -1.8366 C   0  0  0  0  0  0  0  0  0  0  0  0
    0.7882   -0.1449   -2.0358 C   0  0  0  0  0  0  0  0  0  0  0  0
    5.0071   -0.8874   -0.4430 C   0  0  0  0  0  0  0  0  0  0  0  0
    5.5152   -2.0216   -1.1393 N   0  0  0  0  0  0  0  0  0  0  0  0
    5.8629   -0.0874    0.2427 N   0  0  0  0  0  0  0  0  0  0  0  0
  1  2  1  0
  2  3  2  0
  3  4  1  0
  4  5  2  0
  5  6  1  0
  6  7  1  0
  7  8  2  0
  8  9  1  0
  9 10  2  0
 10 11  1  0
 11 12  1  0
 12 13  1  0
 13 14  2  0
 14 15  1  0
 15 16  2  0
 16 17  1  0
 17 18  2  0
 10 19  1  0
 19 20  2  0
  5 21  1  0
 21 22  1  0
 21 23  2  0
 23  2  1  0
 20  7  1  0
 18 13  1  0
M  END
>  <zinc_id>  (181) 
ZINC000005974561

>  <ortholog_name>  (181) 
DRTS_PLAFK

>  <gene_name>  (181) 
DRTS_PLAFK

>  <affinity>  (181) 
6.00

>  <chembldocid>  (181) 
17636

>  <title>  (181) 
None

>  <reference.pubmed_id>  (181) 
14711307

>  <reference.doi>  (181) 
None

>  <reference.chembl_id>  (181) 
CHEMBL1148379

>  <reference.journal>  (181) 
J. Med. Chem.

>  <reference.year>  (181) 
2004

$$$$

     RDKit          3D

 21 22  0  0  0  0  0  0  0  0999 V2000
    5.7510    0.1968   -0.0206 N   0  0  0  0  0  0  0  0  0  0  0  0
    4.5224    0.4055    0.3019 C   0  0  0  0  0  0  0  0  0  0  0  0
    4.1863    1.5737    1.0253 N   0  0  0  0  0  0  0  0  0  0  0  0
    5.1177    2.4314    1.4768 O   0  0  0  0  0  0  0  0  0  0  0  0
    3.4507   -0.5180   -0.0488 C   0  0  0  0  0  0  0  0  0  0  0  0
    3.7782   -1.6431   -0.7461 C   0  0  0  0  0  0  0  0  0  0  0  0
    2.8043   -2.5394   -1.0975 C   0  0  0  0  0  0  0  0  0  0  0  0
    1.4917   -2.2877   -0.7366 C   0  0  0  0  0  0  0  0  0  0  0  0
    1.1253   -1.1579   -0.0302 C   0  0  0  0  0  0  0  0  0  0  0  0
   -0.2871   -0.9022    0.3495 C   0  0  0  0  0  0  0  0  0  0  0  0
   -1.1110    0.0203   -0.9202 S   0  0  0  0  0  0  0  0  0  0  0  0
   -0.3972    1.3292   -1.1449 O   0  0  0  0  0  0  0  0  0  0  0  0
   -1.0621   -0.7452   -2.1847 O   0  0  0  0  0  0  0  0  0  0  0  0
   -2.7571    0.2798   -0.4035 C   0  0  0  0  0  0  0  0  0  0  0  0
   -3.0758    1.4022    0.3285 C   0  0  0  0  0  0  0  0  0  0  0  0
   -4.3735    1.6196    0.7435 C   0  0  0  0  0  0  0  0  0  0  0  0
   -5.3970    0.7433    0.4532 C   0  0  0  0  0  0  0  0  0  0  0  0
   -7.0500    1.0436    0.9954 Cl  0  0  0  0  0  0  0  0  0  0  0  0
   -5.0806   -0.3814   -0.2797 C   0  0  0  0  0  0  0  0  0  0  0  0
   -3.7802   -0.5942   -0.6925 C   0  0  0  0  0  0  0  0  0  0  0  0
    2.1439   -0.2766    0.3051 C   0  0  0  0  0  0  0  0  0  0  0  0
  1  2  2  0
  2  3  1  0
  3  4  1  0
  2  5  1  0
  5  6  2  0
  6  7  1  0
  7  8  2  0
  8  9  1  0
  9 10  1  0
 10 11  1  0
 11 12  2  0
 11 13  2  0
 11 14  1  0
 14 15  2  0
 15 16  1  0
 16 17  2  0
 17 18  1  0
 17 19  1  0
 19 20  2  0
  9 21  2  0
 21  5  1  0
 20 14  1  0
M  END
>  <zinc_id>  (182) 
ZINC000005992377

>  <ortholog_name>  (182) 
DRTS_PLAFK

>  <gene_name>  (182) 
DRTS_PLAFK

>  <affinity>  (182) 
6.10

>  <chembldocid>  (182) 
21047

>  <title>  (182) 
None

>  <reference.pubmed_id>  (182) 
15293997

>  <reference.doi>  (182) 
None

>  <reference.chembl_id>  (182) 
CHEMBL1138679

>  <reference.journal>  (182) 
J. Med. Chem.

>  <reference.year>  (182) 
2004

$$$$

     RDKit          3D

 14 15  0  0  0  0  0  0  0  0999 V2000
   -3.0886   -2.0062   -0.3166 N   0  0  0  0  0  0  0  0  0  0  0  0
   -2.5405   -1.0742    0.5759 N   0  0  0  0  0  0  0  0  0  0  0  0
   -1.2735   -0.5141    0.2549 C   0  0  0  0  0  0  0  0  0  0  0  0
   -0.1576   -1.2725    0.2716 N   0  0  0  0  0  0  0  0  0  0  0  0
    1.0200   -0.7034    0.0126 C   0  0  0  0  0  0  0  0  0  0  0  0
    2.2123   -1.4219    0.0317 C   0  0  0  0  0  0  0  0  0  0  0  0
    3.4350   -0.8560   -0.2149 C   0  0  0  0  0  0  0  0  0  0  0  0
    3.5000    0.4892   -0.4984 C   0  0  0  0  0  0  0  0  0  0  0  0
    2.3453    1.2237   -0.5245 C   0  0  0  0  0  0  0  0  0  0  0  0
    1.1253    0.6452   -0.2744 C   0  0  0  0  0  0  0  0  0  0  0  0
   -0.0020    1.3784   -0.2850 N   0  0  0  0  0  0  0  0  0  0  0  0
   -1.1766    0.8190   -0.0301 C   0  0  0  0  0  0  0  0  0  0  0  0
   -2.3475    1.6268   -0.0554 N   0  0  0  0  0  0  0  0  0  0  0  0
   -3.0516    1.6661   -1.2721 N   0  0  0  0  0  0  0  0  0  0  0  0
  1  2  1  0
  2  3  1  0
  3  4  2  0
  4  5  1  0
  5  6  2  0
  6  7  1  0
  7  8  2  0
  8  9  1  0
  9 10  2  0
 10 11  1  0
 11 12  2  0
 12 13  1  0
 13 14  1  0
 12  3  1  0
 10  5  1  0
M  END
>  <zinc_id>  (183) 
ZINC000006118700

>  <ortholog_name>  (183) 
DRTS_PLAFK

>  <gene_name>  (183) 
DRTS_PLAFK

>  <affinity>  (183) 
5.57

>  <chembldocid>  (183) 
17071

>  <title>  (183) 
None

>  <reference.pubmed_id>  (183) 
12825927

>  <reference.doi>  (183) 
None

>  <reference.chembl_id>  (183) 
CHEMBL1145823

>  <reference.journal>  (183) 
J. Med. Chem.

>  <reference.year>  (183) 
2003

$$$$

     RDKit          3D

 14 15  0  0  0  0  0  0  0  0999 V2000
   -3.0886   -2.0062   -0.3166 N   0  0  0  0  0  0  0  0  0  0  0  0
   -2.5405   -1.0742    0.5759 N   0  0  0  0  0  0  0  0  0  0  0  0
   -1.2735   -0.5141    0.2549 C   0  0  0  0  0  0  0  0  0  0  0  0
   -0.1576   -1.2725    0.2716 N   0  0  0  0  0  0  0  0  0  0  0  0
    1.0200   -0.7034    0.0126 C   0  0  0  0  0  0  0  0  0  0  0  0
    2.2123   -1.4219    0.0317 C   0  0  0  0  0  0  0  0  0  0  0  0
    3.4350   -0.8560   -0.2149 C   0  0  0  0  0  0  0  0  0  0  0  0
    3.5000    0.4892   -0.4984 C   0  0  0  0  0  0  0  0  0  0  0  0
    2.3453    1.2237   -0.5245 C   0  0  0  0  0  0  0  0  0  0  0  0
    1.1253    0.6452   -0.2744 C   0  0  0  0  0  0  0  0  0  0  0  0
   -0.0020    1.3784   -0.2850 N   0  0  0  0  0  0  0  0  0  0  0  0
   -1.1766    0.8190   -0.0301 C   0  0  0  0  0  0  0  0  0  0  0  0
   -2.3475    1.6268   -0.0554 N   0  0  0  0  0  0  0  0  0  0  0  0
   -3.0516    1.6661   -1.2721 N   0  0  0  0  0  0  0  0  0  0  0  0
  1  2  1  0
  2  3  1  0
  3  4  2  0
  4  5  1  0
  5  6  2  0
  6  7  1  0
  7  8  2  0
  8  9  1  0
  9 10  2  0
 10 11  1  0
 11 12  2  0
 12 13  1  0
 13 14  1  0
 12  3  1  0
 10  5  1  0
M  END
>  <zinc_id>  (184) 
ZINC000006118700

>  <ortholog_name>  (184) 
DRTS_PLAFK

>  <gene_name>  (184) 
DRTS_PLAFK

>  <affinity>  (184) 
5.47

>  <chembldocid>  (184) 
17071

>  <title>  (184) 
None

>  <reference.pubmed_id>  (184) 
12825927

>  <reference.doi>  (184) 
None

>  <reference.chembl_id>  (184) 
CHEMBL1145823

>  <reference.journal>  (184) 
J. Med. Chem.

>  <reference.year>  (184) 
2003

$$$$

     RDKit          3D

 14 15  0  0  0  0  0  0  0  0999 V2000
   -3.0886   -2.0062   -0.3166 N   0  0  0  0  0  0  0  0  0  0  0  0
   -2.5405   -1.0742    0.5759 N   0  0  0  0  0  0  0  0  0  0  0  0
   -1.2735   -0.5141    0.2549 C   0  0  0  0  0  0  0  0  0  0  0  0
   -0.1576   -1.2725    0.2716 N   0  0  0  0  0  0  0  0  0  0  0  0
    1.0200   -0.7034    0.0126 C   0  0  0  0  0  0  0  0  0  0  0  0
    2.2123   -1.4219    0.0317 C   0  0  0  0  0  0  0  0  0  0  0  0
    3.4350   -0.8560   -0.2149 C   0  0  0  0  0  0  0  0  0  0  0  0
    3.5000    0.4892   -0.4984 C   0  0  0  0  0  0  0  0  0  0  0  0
    2.3453    1.2237   -0.5245 C   0  0  0  0  0  0  0  0  0  0  0  0
    1.1253    0.6452   -0.2744 C   0  0  0  0  0  0  0  0  0  0  0  0
   -0.0020    1.3784   -0.2850 N   0  0  0  0  0  0  0  0  0  0  0  0
   -1.1766    0.8190   -0.0301 C   0  0  0  0  0  0  0  0  0  0  0  0
   -2.3475    1.6268   -0.0554 N   0  0  0  0  0  0  0  0  0  0  0  0
   -3.0516    1.6661   -1.2721 N   0  0  0  0  0  0  0  0  0  0  0  0
  1  2  1  0
  2  3  1  0
  3  4  2  0
  4  5  1  0
  5  6  2  0
  6  7  1  0
  7  8  2  0
  8  9  1  0
  9 10  2  0
 10 11  1  0
 11 12  2  0
 12 13  1  0
 13 14  1  0
 12  3  1  0
 10  5  1  0
M  END
>  <zinc_id>  (185) 
ZINC000006118700

>  <ortholog_name>  (185) 
DRTS_PLAFK

>  <gene_name>  (185) 
DRTS_PLAFK

>  <affinity>  (185) 
5.44

>  <chembldocid>  (185) 
17071

>  <title>  (185) 
None

>  <reference.pubmed_id>  (185) 
12825927

>  <reference.doi>  (185) 
None

>  <reference.chembl_id>  (185) 
CHEMBL1145823

>  <reference.journal>  (185) 
J. Med. Chem.

>  <reference.year>  (185) 
2003

$$$$

     RDKit          3D

 14 15  0  0  0  0  0  0  0  0999 V2000
   -3.0886   -2.0062   -0.3166 N   0  0  0  0  0  0  0  0  0  0  0  0
   -2.5405   -1.0742    0.5759 N   0  0  0  0  0  0  0  0  0  0  0  0
   -1.2735   -0.5141    0.2549 C   0  0  0  0  0  0  0  0  0  0  0  0
   -0.1576   -1.2725    0.2716 N   0  0  0  0  0  0  0  0  0  0  0  0
    1.0200   -0.7034    0.0126 C   0  0  0  0  0  0  0  0  0  0  0  0
    2.2123   -1.4219    0.0317 C   0  0  0  0  0  0  0  0  0  0  0  0
    3.4350   -0.8560   -0.2149 C   0  0  0  0  0  0  0  0  0  0  0  0
    3.5000    0.4892   -0.4984 C   0  0  0  0  0  0  0  0  0  0  0  0
    2.3453    1.2237   -0.5245 C   0  0  0  0  0  0  0  0  0  0  0  0
    1.1253    0.6452   -0.2744 C   0  0  0  0  0  0  0  0  0  0  0  0
   -0.0020    1.3784   -0.2850 N   0  0  0  0  0  0  0  0  0  0  0  0
   -1.1766    0.8190   -0.0301 C   0  0  0  0  0  0  0  0  0  0  0  0
   -2.3475    1.6268   -0.0554 N   0  0  0  0  0  0  0  0  0  0  0  0
   -3.0516    1.6661   -1.2721 N   0  0  0  0  0  0  0  0  0  0  0  0
  1  2  1  0
  2  3  1  0
  3  4  2  0
  4  5  1  0
  5  6  2  0
  6  7  1  0
  7  8  2  0
  8  9  1  0
  9 10  2  0
 10 11  1  0
 11 12  2  0
 12 13  1  0
 13 14  1  0
 12  3  1  0
 10  5  1  0
M  END
>  <zinc_id>  (186) 
ZINC000006118700

>  <ortholog_name>  (186) 
DRTS_PLAFK

>  <gene_name>  (186) 
DRTS_PLAFK

>  <affinity>  (186) 
6.10

>  <chembldocid>  (186) 
17071

>  <title>  (186) 
None

>  <reference.pubmed_id>  (186) 
12825927

>  <reference.doi>  (186) 
None

>  <reference.chembl_id>  (186) 
CHEMBL1145823

>  <reference.journal>  (186) 
J. Med. Chem.

>  <reference.year>  (186) 
2003

$$$$

     RDKit          3D

 14 15  0  0  0  0  0  0  0  0999 V2000
   -3.0886   -2.0062   -0.3166 N   0  0  0  0  0  0  0  0  0  0  0  0
   -2.5405   -1.0742    0.5759 N   0  0  0  0  0  0  0  0  0  0  0  0
   -1.2735   -0.5141    0.2549 C   0  0  0  0  0  0  0  0  0  0  0  0
   -0.1576   -1.2725    0.2716 N   0  0  0  0  0  0  0  0  0  0  0  0
    1.0200   -0.7034    0.0126 C   0  0  0  0  0  0  0  0  0  0  0  0
    2.2123   -1.4219    0.0317 C   0  0  0  0  0  0  0  0  0  0  0  0
    3.4350   -0.8560   -0.2149 C   0  0  0  0  0  0  0  0  0  0  0  0
    3.5000    0.4892   -0.4984 C   0  0  0  0  0  0  0  0  0  0  0  0
    2.3453    1.2237   -0.5245 C   0  0  0  0  0  0  0  0  0  0  0  0
    1.1253    0.6452   -0.2744 C   0  0  0  0  0  0  0  0  0  0  0  0
   -0.0020    1.3784   -0.2850 N   0  0  0  0  0  0  0  0  0  0  0  0
   -1.1766    0.8190   -0.0301 C   0  0  0  0  0  0  0  0  0  0  0  0
   -2.3475    1.6268   -0.0554 N   0  0  0  0  0  0  0  0  0  0  0  0
   -3.0516    1.6661   -1.2721 N   0  0  0  0  0  0  0  0  0  0  0  0
  1  2  1  0
  2  3  1  0
  3  4  2  0
  4  5  1  0
  5  6  2  0
  6  7  1  0
  7  8  2  0
  8  9  1  0
  9 10  2  0
 10 11  1  0
 11 12  2  0
 12 13  1  0
 13 14  1  0
 12  3  1  0
 10  5  1  0
M  END
>  <zinc_id>  (187) 
ZINC000006118700

>  <ortholog_name>  (187) 
DRTS_PLAFK

>  <gene_name>  (187) 
DRTS_PLAFK

>  <affinity>  (187) 
5.07

>  <chembldocid>  (187) 
21047

>  <title>  (187) 
None

>  <reference.pubmed_id>  (187) 
15293997

>  <reference.doi>  (187) 
None

>  <reference.chembl_id>  (187) 
CHEMBL1138679

>  <reference.journal>  (187) 
J. Med. Chem.

>  <reference.year>  (187) 
2004

$$$$

     RDKit          3D

 14 15  0  0  0  0  0  0  0  0999 V2000
   -3.0886   -2.0062   -0.3166 N   0  0  0  0  0  0  0  0  0  0  0  0
   -2.5405   -1.0742    0.5759 N   0  0  0  0  0  0  0  0  0  0  0  0
   -1.2735   -0.5141    0.2549 C   0  0  0  0  0  0  0  0  0  0  0  0
   -0.1576   -1.2725    0.2716 N   0  0  0  0  0  0  0  0  0  0  0  0
    1.0200   -0.7034    0.0126 C   0  0  0  0  0  0  0  0  0  0  0  0
    2.2123   -1.4219    0.0317 C   0  0  0  0  0  0  0  0  0  0  0  0
    3.4350   -0.8560   -0.2149 C   0  0  0  0  0  0  0  0  0  0  0  0
    3.5000    0.4892   -0.4984 C   0  0  0  0  0  0  0  0  0  0  0  0
    2.3453    1.2237   -0.5245 C   0  0  0  0  0  0  0  0  0  0  0  0
    1.1253    0.6452   -0.2744 C   0  0  0  0  0  0  0  0  0  0  0  0
   -0.0020    1.3784   -0.2850 N   0  0  0  0  0  0  0  0  0  0  0  0
   -1.1766    0.8190   -0.0301 C   0  0  0  0  0  0  0  0  0  0  0  0
   -2.3475    1.6268   -0.0554 N   0  0  0  0  0  0  0  0  0  0  0  0
   -3.0516    1.6661   -1.2721 N   0  0  0  0  0  0  0  0  0  0  0  0
  1  2  1  0
  2  3  1  0
  3  4  2  0
  4  5  1  0
  5  6  2  0
  6  7  1  0
  7  8  2  0
  8  9  1  0
  9 10  2  0
 10 11  1  0
 11 12  2  0
 12 13  1  0
 13 14  1  0
 12  3  1  0
 10  5  1  0
M  END
>  <zinc_id>  (188) 
ZINC000006118700

>  <ortholog_name>  (188) 
DRTS_PLAFK

>  <gene_name>  (188) 
DRTS_PLAFK

>  <affinity>  (188) 
5.01

>  <chembldocid>  (188) 
17071

>  <title>  (188) 
None

>  <reference.pubmed_id>  (188) 
12825927

>  <reference.doi>  (188) 
None

>  <reference.chembl_id>  (188) 
CHEMBL1145823

>  <reference.journal>  (188) 
J. Med. Chem.

>  <reference.year>  (188) 
2003

$$$$

     RDKit          3D

 21 22  0  0  0  0  0  0  0  0999 V2000
   -2.2661   -3.4232   -0.6775 C   0  0  0  0  0  0  0  0  0  0  0  0
   -2.7785   -2.2415   -0.1383 O   0  0  0  0  0  0  0  0  0  0  0  0
   -2.1770   -1.0024   -0.2537 C   0  0  0  0  0  0  0  0  0  0  0  0
   -0.9825   -0.8771   -0.9421 C   0  0  0  0  0  0  0  0  0  0  0  0
   -0.3697    0.3477   -1.0665 C   0  0  0  0  0  0  0  0  0  0  0  0
    0.9038    0.4233   -1.8118 C   0  0  0  0  0  0  0  0  0  0  0  0
    2.0907    0.2310   -0.9425 C   0  0  0  0  0  0  0  0  0  0  0  0
    2.8733    1.3097   -0.5615 C   0  0  0  0  0  0  0  0  0  0  0  0
    3.9389    1.0840    0.2279 N   0  0  0  0  0  0  0  0  0  0  0  0
    4.3059   -0.1244    0.6810 C   0  0  0  0  0  0  0  0  0  0  0  0
    5.4592   -0.2944    1.5237 N   0  0  0  0  0  0  0  0  0  0  0  0
    3.5536   -1.1782    0.3177 N   0  0  0  0  0  0  0  0  0  0  0  0
    2.4609   -1.0117   -0.4819 C   0  0  0  0  0  0  0  0  0  0  0  0
    1.7014   -2.1491   -0.8360 N   0  0  0  0  0  0  0  0  0  0  0  0
   -0.9676    1.4438   -0.4938 C   0  0  0  0  0  0  0  0  0  0  0  0
   -2.1687    1.3398    0.2027 C   0  0  0  0  0  0  0  0  0  0  0  0
   -2.7739    2.4620    0.7851 O   0  0  0  0  0  0  0  0  0  0  0  0
   -2.2249    3.7424    0.7098 C   0  0  0  0  0  0  0  0  0  0  0  0
   -2.7664    0.1065    0.3168 C   0  0  0  0  0  0  0  0  0  0  0  0
   -3.9683    0.0303    1.0188 O   0  0  0  0  0  0  0  0  0  0  0  0
   -3.8442   -0.2183    2.4223 C   0  0  0  0  0  0  0  0  0  0  0  0
  1  2  1  0
  2  3  1  0
  3  4  2  0
  4  5  1  0
  5  6  1  0
  6  7  1  0
  7  8  2  0
  8  9  1  0
  9 10  2  0
 10 11  1  0
 10 12  1  0
 12 13  2  0
 13 14  1  0
  5 15  2  0
 15 16  1  0
 16 17  1  0
 17 18  1  0
 16 19  2  0
 19 20  1  0
 20 21  1  0
 19  3  1  0
 13  7  1  0
M  END
>  <zinc_id>  (189) 
ZINC000006627681

>  <ortholog_name>  (189) 
DRTS_PLAFK

>  <gene_name>  (189) 
DRTS_PLAFK

>  <affinity>  (189) 
8.00

>  <chembldocid>  (189) 
31502

>  <title>  (189) 
None

>  <reference.pubmed_id>  (189) 
16750361

>  <reference.doi>  (189) 
None

>  <reference.chembl_id>  (189) 
CHEMBL1145311

>  <reference.journal>  (189) 
Bioorg. Med. Chem. Lett.

>  <reference.year>  (189) 
2006

$$$$

     RDKit          3D

 21 22  0  0  0  0  0  0  0  0999 V2000
   -2.2661   -3.4232   -0.6775 C   0  0  0  0  0  0  0  0  0  0  0  0
   -2.7785   -2.2415   -0.1383 O   0  0  0  0  0  0  0  0  0  0  0  0
   -2.1770   -1.0024   -0.2537 C   0  0  0  0  0  0  0  0  0  0  0  0
   -0.9825   -0.8771   -0.9421 C   0  0  0  0  0  0  0  0  0  0  0  0
   -0.3697    0.3477   -1.0665 C   0  0  0  0  0  0  0  0  0  0  0  0
    0.9038    0.4233   -1.8118 C   0  0  0  0  0  0  0  0  0  0  0  0
    2.0907    0.2310   -0.9425 C   0  0  0  0  0  0  0  0  0  0  0  0
    2.8733    1.3097   -0.5615 C   0  0  0  0  0  0  0  0  0  0  0  0
    3.9389    1.0840    0.2279 N   0  0  0  0  0  0  0  0  0  0  0  0
    4.3059   -0.1244    0.6810 C   0  0  0  0  0  0  0  0  0  0  0  0
    5.4592   -0.2944    1.5237 N   0  0  0  0  0  0  0  0  0  0  0  0
    3.5536   -1.1782    0.3177 N   0  0  0  0  0  0  0  0  0  0  0  0
    2.4609   -1.0117   -0.4819 C   0  0  0  0  0  0  0  0  0  0  0  0
    1.7014   -2.1491   -0.8360 N   0  0  0  0  0  0  0  0  0  0  0  0
   -0.9676    1.4438   -0.4938 C   0  0  0  0  0  0  0  0  0  0  0  0
   -2.1687    1.3398    0.2027 C   0  0  0  0  0  0  0  0  0  0  0  0
   -2.7739    2.4620    0.7851 O   0  0  0  0  0  0  0  0  0  0  0  0
   -2.2249    3.7424    0.7098 C   0  0  0  0  0  0  0  0  0  0  0  0
   -2.7664    0.1065    0.3168 C   0  0  0  0  0  0  0  0  0  0  0  0
   -3.9683    0.0303    1.0188 O   0  0  0  0  0  0  0  0  0  0  0  0
   -3.8442   -0.2183    2.4223 C   0  0  0  0  0  0  0  0  0  0  0  0
  1  2  1  0
  2  3  1  0
  3  4  2  0
  4  5  1  0
  5  6  1  0
  6  7  1  0
  7  8  2  0
  8  9  1  0
  9 10  2  0
 10 11  1  0
 10 12  1  0
 12 13  2  0
 13 14  1  0
  5 15  2  0
 15 16  1  0
 16 17  1  0
 17 18  1  0
 16 19  2  0
 19 20  1  0
 20 21  1  0
 19  3  1  0
 13  7  1  0
M  END
>  <zinc_id>  (190) 
ZINC000006627681

>  <ortholog_name>  (190) 
DRTS_PLAFK

>  <gene_name>  (190) 
DRTS_PLAFK

>  <affinity>  (190) 
7.99

>  <chembldocid>  (190) 
16871

>  <title>  (190) 
None

>  <reference.pubmed_id>  (190) 
11881993

>  <reference.doi>  (190) 
None

>  <reference.chembl_id>  (190) 
CHEMBL1135602

>  <reference.journal>  (190) 
J. Med. Chem.

>  <reference.year>  (190) 
2002

$$$$

     RDKit          3D

 21 22  0  0  0  0  0  0  0  0999 V2000
   -2.2661   -3.4232   -0.6775 C   0  0  0  0  0  0  0  0  0  0  0  0
   -2.7785   -2.2415   -0.1383 O   0  0  0  0  0  0  0  0  0  0  0  0
   -2.1770   -1.0024   -0.2537 C   0  0  0  0  0  0  0  0  0  0  0  0
   -0.9825   -0.8771   -0.9421 C   0  0  0  0  0  0  0  0  0  0  0  0
   -0.3697    0.3477   -1.0665 C   0  0  0  0  0  0  0  0  0  0  0  0
    0.9038    0.4233   -1.8118 C   0  0  0  0  0  0  0  0  0  0  0  0
    2.0907    0.2310   -0.9425 C   0  0  0  0  0  0  0  0  0  0  0  0
    2.8733    1.3097   -0.5615 C   0  0  0  0  0  0  0  0  0  0  0  0
    3.9389    1.0840    0.2279 N   0  0  0  0  0  0  0  0  0  0  0  0
    4.3059   -0.1244    0.6810 C   0  0  0  0  0  0  0  0  0  0  0  0
    5.4592   -0.2944    1.5237 N   0  0  0  0  0  0  0  0  0  0  0  0
    3.5536   -1.1782    0.3177 N   0  0  0  0  0  0  0  0  0  0  0  0
    2.4609   -1.0117   -0.4819 C   0  0  0  0  0  0  0  0  0  0  0  0
    1.7014   -2.1491   -0.8360 N   0  0  0  0  0  0  0  0  0  0  0  0
   -0.9676    1.4438   -0.4938 C   0  0  0  0  0  0  0  0  0  0  0  0
   -2.1687    1.3398    0.2027 C   0  0  0  0  0  0  0  0  0  0  0  0
   -2.7739    2.4620    0.7851 O   0  0  0  0  0  0  0  0  0  0  0  0
   -2.2249    3.7424    0.7098 C   0  0  0  0  0  0  0  0  0  0  0  0
   -2.7664    0.1065    0.3168 C   0  0  0  0  0  0  0  0  0  0  0  0
   -3.9683    0.0303    1.0188 O   0  0  0  0  0  0  0  0  0  0  0  0
   -3.8442   -0.2183    2.4223 C   0  0  0  0  0  0  0  0  0  0  0  0
  1  2  1  0
  2  3  1  0
  3  4  2  0
  4  5  1  0
  5  6  1  0
  6  7  1  0
  7  8  2  0
  8  9  1  0
  9 10  2  0
 10 11  1  0
 10 12  1  0
 12 13  2  0
 13 14  1  0
  5 15  2  0
 15 16  1  0
 16 17  1  0
 17 18  1  0
 16 19  2  0
 19 20  1  0
 20 21  1  0
 19  3  1  0
 13  7  1  0
M  END
>  <zinc_id>  (191) 
ZINC000006627681

>  <ortholog_name>  (191) 
DRTS_PLAFK

>  <gene_name>  (191) 
DRTS_PLAFK

>  <affinity>  (191) 
7.99

>  <chembldocid>  (191) 
17636

>  <title>  (191) 
None

>  <reference.pubmed_id>  (191) 
14711307

>  <reference.doi>  (191) 
None

>  <reference.chembl_id>  (191) 
CHEMBL1148379

>  <reference.journal>  (191) 
J. Med. Chem.

>  <reference.year>  (191) 
2004

$$$$

     RDKit          3D

 21 22  0  0  0  0  0  0  0  0999 V2000
   -2.2661   -3.4232   -0.6775 C   0  0  0  0  0  0  0  0  0  0  0  0
   -2.7785   -2.2415   -0.1383 O   0  0  0  0  0  0  0  0  0  0  0  0
   -2.1770   -1.0024   -0.2537 C   0  0  0  0  0  0  0  0  0  0  0  0
   -0.9825   -0.8771   -0.9421 C   0  0  0  0  0  0  0  0  0  0  0  0
   -0.3697    0.3477   -1.0665 C   0  0  0  0  0  0  0  0  0  0  0  0
    0.9038    0.4233   -1.8118 C   0  0  0  0  0  0  0  0  0  0  0  0
    2.0907    0.2310   -0.9425 C   0  0  0  0  0  0  0  0  0  0  0  0
    2.8733    1.3097   -0.5615 C   0  0  0  0  0  0  0  0  0  0  0  0
    3.9389    1.0840    0.2279 N   0  0  0  0  0  0  0  0  0  0  0  0
    4.3059   -0.1244    0.6810 C   0  0  0  0  0  0  0  0  0  0  0  0
    5.4592   -0.2944    1.5237 N   0  0  0  0  0  0  0  0  0  0  0  0
    3.5536   -1.1782    0.3177 N   0  0  0  0  0  0  0  0  0  0  0  0
    2.4609   -1.0117   -0.4819 C   0  0  0  0  0  0  0  0  0  0  0  0
    1.7014   -2.1491   -0.8360 N   0  0  0  0  0  0  0  0  0  0  0  0
   -0.9676    1.4438   -0.4938 C   0  0  0  0  0  0  0  0  0  0  0  0
   -2.1687    1.3398    0.2027 C   0  0  0  0  0  0  0  0  0  0  0  0
   -2.7739    2.4620    0.7851 O   0  0  0  0  0  0  0  0  0  0  0  0
   -2.2249    3.7424    0.7098 C   0  0  0  0  0  0  0  0  0  0  0  0
   -2.7664    0.1065    0.3168 C   0  0  0  0  0  0  0  0  0  0  0  0
   -3.9683    0.0303    1.0188 O   0  0  0  0  0  0  0  0  0  0  0  0
   -3.8442   -0.2183    2.4223 C   0  0  0  0  0  0  0  0  0  0  0  0
  1  2  1  0
  2  3  1  0
  3  4  2  0
  4  5  1  0
  5  6  1  0
  6  7  1  0
  7  8  2  0
  8  9  1  0
  9 10  2  0
 10 11  1  0
 10 12  1  0
 12 13  2  0
 13 14  1  0
  5 15  2  0
 15 16  1  0
 16 17  1  0
 17 18  1  0
 16 19  2  0
 19 20  1  0
 20 21  1  0
 19  3  1  0
 13  7  1  0
M  END
>  <zinc_id>  (192) 
ZINC000006627681

>  <ortholog_name>  (192) 
DRTS_PLAFK

>  <gene_name>  (192) 
DRTS_PLAFK

>  <affinity>  (192) 
6.88

>  <chembldocid>  (192) 
16871

>  <title>  (192) 
None

>  <reference.pubmed_id>  (192) 
11881993

>  <reference.doi>  (192) 
None

>  <reference.chembl_id>  (192) 
CHEMBL1135602

>  <reference.journal>  (192) 
J. Med. Chem.

>  <reference.year>  (192) 
2002

$$$$

     RDKit          3D

 21 22  0  0  0  0  0  0  0  0999 V2000
   -2.2661   -3.4232   -0.6775 C   0  0  0  0  0  0  0  0  0  0  0  0
   -2.7785   -2.2415   -0.1383 O   0  0  0  0  0  0  0  0  0  0  0  0
   -2.1770   -1.0024   -0.2537 C   0  0  0  0  0  0  0  0  0  0  0  0
   -0.9825   -0.8771   -0.9421 C   0  0  0  0  0  0  0  0  0  0  0  0
   -0.3697    0.3477   -1.0665 C   0  0  0  0  0  0  0  0  0  0  0  0
    0.9038    0.4233   -1.8118 C   0  0  0  0  0  0  0  0  0  0  0  0
    2.0907    0.2310   -0.9425 C   0  0  0  0  0  0  0  0  0  0  0  0
    2.8733    1.3097   -0.5615 C   0  0  0  0  0  0  0  0  0  0  0  0
    3.9389    1.0840    0.2279 N   0  0  0  0  0  0  0  0  0  0  0  0
    4.3059   -0.1244    0.6810 C   0  0  0  0  0  0  0  0  0  0  0  0
    5.4592   -0.2944    1.5237 N   0  0  0  0  0  0  0  0  0  0  0  0
    3.5536   -1.1782    0.3177 N   0  0  0  0  0  0  0  0  0  0  0  0
    2.4609   -1.0117   -0.4819 C   0  0  0  0  0  0  0  0  0  0  0  0
    1.7014   -2.1491   -0.8360 N   0  0  0  0  0  0  0  0  0  0  0  0
   -0.9676    1.4438   -0.4938 C   0  0  0  0  0  0  0  0  0  0  0  0
   -2.1687    1.3398    0.2027 C   0  0  0  0  0  0  0  0  0  0  0  0
   -2.7739    2.4620    0.7851 O   0  0  0  0  0  0  0  0  0  0  0  0
   -2.2249    3.7424    0.7098 C   0  0  0  0  0  0  0  0  0  0  0  0
   -2.7664    0.1065    0.3168 C   0  0  0  0  0  0  0  0  0  0  0  0
   -3.9683    0.0303    1.0188 O   0  0  0  0  0  0  0  0  0  0  0  0
   -3.8442   -0.2183    2.4223 C   0  0  0  0  0  0  0  0  0  0  0  0
  1  2  1  0
  2  3  1  0
  3  4  2  0
  4  5  1  0
  5  6  1  0
  6  7  1  0
  7  8  2  0
  8  9  1  0
  9 10  2  0
 10 11  1  0
 10 12  1  0
 12 13  2  0
 13 14  1  0
  5 15  2  0
 15 16  1  0
 16 17  1  0
 17 18  1  0
 16 19  2  0
 19 20  1  0
 20 21  1  0
 19  3  1  0
 13  7  1  0
M  END
>  <zinc_id>  (193) 
ZINC000006627681

>  <ortholog_name>  (193) 
DRTS_PLAFK

>  <gene_name>  (193) 
DRTS_PLAFK

>  <affinity>  (193) 
6.62

>  <chembldocid>  (193) 
16871

>  <title>  (193) 
None

>  <reference.pubmed_id>  (193) 
11881993

>  <reference.doi>  (193) 
None

>  <reference.chembl_id>  (193) 
CHEMBL1135602

>  <reference.journal>  (193) 
J. Med. Chem.

>  <reference.year>  (193) 
2002

$$$$

     RDKit          3D

 21 22  0  0  0  0  0  0  0  0999 V2000
   -2.2661   -3.4232   -0.6775 C   0  0  0  0  0  0  0  0  0  0  0  0
   -2.7785   -2.2415   -0.1383 O   0  0  0  0  0  0  0  0  0  0  0  0
   -2.1770   -1.0024   -0.2537 C   0  0  0  0  0  0  0  0  0  0  0  0
   -0.9825   -0.8771   -0.9421 C   0  0  0  0  0  0  0  0  0  0  0  0
   -0.3697    0.3477   -1.0665 C   0  0  0  0  0  0  0  0  0  0  0  0
    0.9038    0.4233   -1.8118 C   0  0  0  0  0  0  0  0  0  0  0  0
    2.0907    0.2310   -0.9425 C   0  0  0  0  0  0  0  0  0  0  0  0
    2.8733    1.3097   -0.5615 C   0  0  0  0  0  0  0  0  0  0  0  0
    3.9389    1.0840    0.2279 N   0  0  0  0  0  0  0  0  0  0  0  0
    4.3059   -0.1244    0.6810 C   0  0  0  0  0  0  0  0  0  0  0  0
    5.4592   -0.2944    1.5237 N   0  0  0  0  0  0  0  0  0  0  0  0
    3.5536   -1.1782    0.3177 N   0  0  0  0  0  0  0  0  0  0  0  0
    2.4609   -1.0117   -0.4819 C   0  0  0  0  0  0  0  0  0  0  0  0
    1.7014   -2.1491   -0.8360 N   0  0  0  0  0  0  0  0  0  0  0  0
   -0.9676    1.4438   -0.4938 C   0  0  0  0  0  0  0  0  0  0  0  0
   -2.1687    1.3398    0.2027 C   0  0  0  0  0  0  0  0  0  0  0  0
   -2.7739    2.4620    0.7851 O   0  0  0  0  0  0  0  0  0  0  0  0
   -2.2249    3.7424    0.7098 C   0  0  0  0  0  0  0  0  0  0  0  0
   -2.7664    0.1065    0.3168 C   0  0  0  0  0  0  0  0  0  0  0  0
   -3.9683    0.0303    1.0188 O   0  0  0  0  0  0  0  0  0  0  0  0
   -3.8442   -0.2183    2.4223 C   0  0  0  0  0  0  0  0  0  0  0  0
  1  2  1  0
  2  3  1  0
  3  4  2  0
  4  5  1  0
  5  6  1  0
  6  7  1  0
  7  8  2  0
  8  9  1  0
  9 10  2  0
 10 11  1  0
 10 12  1  0
 12 13  2  0
 13 14  1  0
  5 15  2  0
 15 16  1  0
 16 17  1  0
 17 18  1  0
 16 19  2  0
 19 20  1  0
 20 21  1  0
 19  3  1  0
 13  7  1  0
M  END
>  <zinc_id>  (194) 
ZINC000006627681

>  <ortholog_name>  (194) 
DRTS_PLAFK

>  <gene_name>  (194) 
DRTS_PLAFK

>  <affinity>  (194) 
6.62

>  <chembldocid>  (194) 
17636

>  <title>  (194) 
None

>  <reference.pubmed_id>  (194) 
14711307

>  <reference.doi>  (194) 
None

>  <reference.chembl_id>  (194) 
CHEMBL1148379

>  <reference.journal>  (194) 
J. Med. Chem.

>  <reference.year>  (194) 
2004

$$$$

     RDKit          3D

 21 22  0  0  0  0  0  0  0  0999 V2000
   -2.2661   -3.4232   -0.6775 C   0  0  0  0  0  0  0  0  0  0  0  0
   -2.7785   -2.2415   -0.1383 O   0  0  0  0  0  0  0  0  0  0  0  0
   -2.1770   -1.0024   -0.2537 C   0  0  0  0  0  0  0  0  0  0  0  0
   -0.9825   -0.8771   -0.9421 C   0  0  0  0  0  0  0  0  0  0  0  0
   -0.3697    0.3477   -1.0665 C   0  0  0  0  0  0  0  0  0  0  0  0
    0.9038    0.4233   -1.8118 C   0  0  0  0  0  0  0  0  0  0  0  0
    2.0907    0.2310   -0.9425 C   0  0  0  0  0  0  0  0  0  0  0  0
    2.8733    1.3097   -0.5615 C   0  0  0  0  0  0  0  0  0  0  0  0
    3.9389    1.0840    0.2279 N   0  0  0  0  0  0  0  0  0  0  0  0
    4.3059   -0.1244    0.6810 C   0  0  0  0  0  0  0  0  0  0  0  0
    5.4592   -0.2944    1.5237 N   0  0  0  0  0  0  0  0  0  0  0  0
    3.5536   -1.1782    0.3177 N   0  0  0  0  0  0  0  0  0  0  0  0
    2.4609   -1.0117   -0.4819 C   0  0  0  0  0  0  0  0  0  0  0  0
    1.7014   -2.1491   -0.8360 N   0  0  0  0  0  0  0  0  0  0  0  0
   -0.9676    1.4438   -0.4938 C   0  0  0  0  0  0  0  0  0  0  0  0
   -2.1687    1.3398    0.2027 C   0  0  0  0  0  0  0  0  0  0  0  0
   -2.7739    2.4620    0.7851 O   0  0  0  0  0  0  0  0  0  0  0  0
   -2.2249    3.7424    0.7098 C   0  0  0  0  0  0  0  0  0  0  0  0
   -2.7664    0.1065    0.3168 C   0  0  0  0  0  0  0  0  0  0  0  0
   -3.9683    0.0303    1.0188 O   0  0  0  0  0  0  0  0  0  0  0  0
   -3.8442   -0.2183    2.4223 C   0  0  0  0  0  0  0  0  0  0  0  0
  1  2  1  0
  2  3  1  0
  3  4  2  0
  4  5  1  0
  5  6  1  0
  6  7  1  0
  7  8  2  0
  8  9  1  0
  9 10  2  0
 10 11  1  0
 10 12  1  0
 12 13  2  0
 13 14  1  0
  5 15  2  0
 15 16  1  0
 16 17  1  0
 17 18  1  0
 16 19  2  0
 19 20  1  0
 20 21  1  0
 19  3  1  0
 13  7  1  0
M  END
>  <zinc_id>  (195) 
ZINC000006627681

>  <ortholog_name>  (195) 
DRTS_PLAFK

>  <gene_name>  (195) 
DRTS_PLAFK

>  <affinity>  (195) 
5.24

>  <chembldocid>  (195) 
17636

>  <title>  (195) 
None

>  <reference.pubmed_id>  (195) 
14711307

>  <reference.doi>  (195) 
None

>  <reference.chembl_id>  (195) 
CHEMBL1148379

>  <reference.journal>  (195) 
J. Med. Chem.

>  <reference.year>  (195) 
2004

$$$$

     RDKit          3D

 21 22  0  0  0  0  0  0  0  0999 V2000
   -2.2661   -3.4232   -0.6775 C   0  0  0  0  0  0  0  0  0  0  0  0
   -2.7785   -2.2415   -0.1383 O   0  0  0  0  0  0  0  0  0  0  0  0
   -2.1770   -1.0024   -0.2537 C   0  0  0  0  0  0  0  0  0  0  0  0
   -0.9825   -0.8771   -0.9421 C   0  0  0  0  0  0  0  0  0  0  0  0
   -0.3697    0.3477   -1.0665 C   0  0  0  0  0  0  0  0  0  0  0  0
    0.9038    0.4233   -1.8118 C   0  0  0  0  0  0  0  0  0  0  0  0
    2.0907    0.2310   -0.9425 C   0  0  0  0  0  0  0  0  0  0  0  0
    2.8733    1.3097   -0.5615 C   0  0  0  0  0  0  0  0  0  0  0  0
    3.9389    1.0840    0.2279 N   0  0  0  0  0  0  0  0  0  0  0  0
    4.3059   -0.1244    0.6810 C   0  0  0  0  0  0  0  0  0  0  0  0
    5.4592   -0.2944    1.5237 N   0  0  0  0  0  0  0  0  0  0  0  0
    3.5536   -1.1782    0.3177 N   0  0  0  0  0  0  0  0  0  0  0  0
    2.4609   -1.0117   -0.4819 C   0  0  0  0  0  0  0  0  0  0  0  0
    1.7014   -2.1491   -0.8360 N   0  0  0  0  0  0  0  0  0  0  0  0
   -0.9676    1.4438   -0.4938 C   0  0  0  0  0  0  0  0  0  0  0  0
   -2.1687    1.3398    0.2027 C   0  0  0  0  0  0  0  0  0  0  0  0
   -2.7739    2.4620    0.7851 O   0  0  0  0  0  0  0  0  0  0  0  0
   -2.2249    3.7424    0.7098 C   0  0  0  0  0  0  0  0  0  0  0  0
   -2.7664    0.1065    0.3168 C   0  0  0  0  0  0  0  0  0  0  0  0
   -3.9683    0.0303    1.0188 O   0  0  0  0  0  0  0  0  0  0  0  0
   -3.8442   -0.2183    2.4223 C   0  0  0  0  0  0  0  0  0  0  0  0
  1  2  1  0
  2  3  1  0
  3  4  2  0
  4  5  1  0
  5  6  1  0
  6  7  1  0
  7  8  2  0
  8  9  1  0
  9 10  2  0
 10 11  1  0
 10 12  1  0
 12 13  2  0
 13 14  1  0
  5 15  2  0
 15 16  1  0
 16 17  1  0
 17 18  1  0
 16 19  2  0
 19 20  1  0
 20 21  1  0
 19  3  1  0
 13  7  1  0
M  END
>  <zinc_id>  (196) 
ZINC000006627681

>  <ortholog_name>  (196) 
DRTS_PLAFK

>  <gene_name>  (196) 
DRTS_PLAFK

>  <affinity>  (196) 
5.18

>  <chembldocid>  (196) 
17636

>  <title>  (196) 
None

>  <reference.pubmed_id>  (196) 
14711307

>  <reference.doi>  (196) 
None

>  <reference.chembl_id>  (196) 
CHEMBL1148379

>  <reference.journal>  (196) 
J. Med. Chem.

>  <reference.year>  (196) 
2004

$$$$

     RDKit          3D

 17 18  0  0  0  0  0  0  0  0999 V2000
   -1.2241    0.8388    2.5398 C   0  0  0  0  0  0  0  0  0  0  0  0
   -1.5125   -0.5239    1.9022 C   0  0  0  0  0  0  0  0  0  0  0  0
   -1.6872   -0.3051    0.4455 C   0  0  0  0  0  0  0  0  0  0  0  0
   -2.9155   -0.3103   -0.1279 N   0  0  0  0  0  0  0  0  0  0  0  0
   -3.1248   -0.1155   -1.4319 C   0  0  0  0  0  0  0  0  0  0  0  0
   -4.4175   -0.1236   -2.0251 N   0  0  0  0  0  0  0  0  0  0  0  0
   -2.0550    0.0985   -2.2245 N   0  0  0  0  0  0  0  0  0  0  0  0
   -0.8272    0.1101   -1.6909 C   0  0  0  0  0  0  0  0  0  0  0  0
    0.3037    0.3394   -2.5400 N   0  0  0  0  0  0  0  0  0  0  0  0
   -0.5876   -0.0919   -0.3271 C   0  0  0  0  0  0  0  0  0  0  0  0
    0.7939   -0.0684    0.1631 C   0  0  0  0  0  0  0  0  0  0  0  0
    1.3037    1.0277    0.8166 C   0  0  0  0  0  0  0  0  0  0  0  0
    2.6206    1.0559    1.2760 C   0  0  0  0  0  0  0  0  0  0  0  0
    3.4653   -0.0275    1.0875 C   0  0  0  0  0  0  0  0  0  0  0  0
    5.2747    0.0294    1.7280 Br  0  0  0  0  0  0  0  0  0  0  0  0
    2.9500   -1.1234    0.4329 C   0  0  0  0  0  0  0  0  0  0  0  0
    1.6392   -1.1518   -0.0242 C   0  0  0  0  0  0  0  0  0  0  0  0
  1  2  1  0
  2  3  1  0
  3  4  2  0
  4  5  1  0
  5  6  1  0
  5  7  2  0
  7  8  1  0
  8  9  1  0
  8 10  2  0
 10 11  1  0
 11 12  2  0
 12 13  1  0
 13 14  2  0
 14 15  1  0
 14 16  1  0
 16 17  2  0
 10  3  1  0
 17 11  1  0
M  END
>  <zinc_id>  (197) 
ZINC000013282256

>  <ortholog_name>  (197) 
DRTS_PLAFK

>  <gene_name>  (197) 
DRTS_PLAFK

>  <affinity>  (197) 
9.52

>  <chembldocid>  (197) 
16871

>  <title>  (197) 
None

>  <reference.pubmed_id>  (197) 
11881993

>  <reference.doi>  (197) 
None

>  <reference.chembl_id>  (197) 
CHEMBL1135602

>  <reference.journal>  (197) 
J. Med. Chem.

>  <reference.year>  (197) 
2002

$$$$

     RDKit          3D

 17 18  0  0  0  0  0  0  0  0999 V2000
   -1.2241    0.8388    2.5398 C   0  0  0  0  0  0  0  0  0  0  0  0
   -1.5125   -0.5239    1.9022 C   0  0  0  0  0  0  0  0  0  0  0  0
   -1.6872   -0.3051    0.4455 C   0  0  0  0  0  0  0  0  0  0  0  0
   -2.9155   -0.3103   -0.1279 N   0  0  0  0  0  0  0  0  0  0  0  0
   -3.1248   -0.1155   -1.4319 C   0  0  0  0  0  0  0  0  0  0  0  0
   -4.4175   -0.1236   -2.0251 N   0  0  0  0  0  0  0  0  0  0  0  0
   -2.0550    0.0985   -2.2245 N   0  0  0  0  0  0  0  0  0  0  0  0
   -0.8272    0.1101   -1.6909 C   0  0  0  0  0  0  0  0  0  0  0  0
    0.3037    0.3394   -2.5400 N   0  0  0  0  0  0  0  0  0  0  0  0
   -0.5876   -0.0919   -0.3271 C   0  0  0  0  0  0  0  0  0  0  0  0
    0.7939   -0.0684    0.1631 C   0  0  0  0  0  0  0  0  0  0  0  0
    1.3037    1.0277    0.8166 C   0  0  0  0  0  0  0  0  0  0  0  0
    2.6206    1.0559    1.2760 C   0  0  0  0  0  0  0  0  0  0  0  0
    3.4653   -0.0275    1.0875 C   0  0  0  0  0  0  0  0  0  0  0  0
    5.2747    0.0294    1.7280 Br  0  0  0  0  0  0  0  0  0  0  0  0
    2.9500   -1.1234    0.4329 C   0  0  0  0  0  0  0  0  0  0  0  0
    1.6392   -1.1518   -0.0242 C   0  0  0  0  0  0  0  0  0  0  0  0
  1  2  1  0
  2  3  1  0
  3  4  2  0
  4  5  1  0
  5  6  1  0
  5  7  2  0
  7  8  1  0
  8  9  1  0
  8 10  2  0
 10 11  1  0
 11 12  2  0
 12 13  1  0
 13 14  2  0
 14 15  1  0
 14 16  1  0
 16 17  2  0
 10  3  1  0
 17 11  1  0
M  END
>  <zinc_id>  (198) 
ZINC000013282256

>  <ortholog_name>  (198) 
DRTS_PLAFK

>  <gene_name>  (198) 
DRTS_PLAFK

>  <affinity>  (198) 
9.08

>  <chembldocid>  (198) 
21047

>  <title>  (198) 
None

>  <reference.pubmed_id>  (198) 
15293997

>  <reference.doi>  (198) 
None

>  <reference.chembl_id>  (198) 
CHEMBL1138679

>  <reference.journal>  (198) 
J. Med. Chem.

>  <reference.year>  (198) 
2004

$$$$

     RDKit          3D

 17 18  0  0  0  0  0  0  0  0999 V2000
   -1.2241    0.8388    2.5398 C   0  0  0  0  0  0  0  0  0  0  0  0
   -1.5125   -0.5239    1.9022 C   0  0  0  0  0  0  0  0  0  0  0  0
   -1.6872   -0.3051    0.4455 C   0  0  0  0  0  0  0  0  0  0  0  0
   -2.9155   -0.3103   -0.1279 N   0  0  0  0  0  0  0  0  0  0  0  0
   -3.1248   -0.1155   -1.4319 C   0  0  0  0  0  0  0  0  0  0  0  0
   -4.4175   -0.1236   -2.0251 N   0  0  0  0  0  0  0  0  0  0  0  0
   -2.0550    0.0985   -2.2245 N   0  0  0  0  0  0  0  0  0  0  0  0
   -0.8272    0.1101   -1.6909 C   0  0  0  0  0  0  0  0  0  0  0  0
    0.3037    0.3394   -2.5400 N   0  0  0  0  0  0  0  0  0  0  0  0
   -0.5876   -0.0919   -0.3271 C   0  0  0  0  0  0  0  0  0  0  0  0
    0.7939   -0.0684    0.1631 C   0  0  0  0  0  0  0  0  0  0  0  0
    1.3037    1.0277    0.8166 C   0  0  0  0  0  0  0  0  0  0  0  0
    2.6206    1.0559    1.2760 C   0  0  0  0  0  0  0  0  0  0  0  0
    3.4653   -0.0275    1.0875 C   0  0  0  0  0  0  0  0  0  0  0  0
    5.2747    0.0294    1.7280 Br  0  0  0  0  0  0  0  0  0  0  0  0
    2.9500   -1.1234    0.4329 C   0  0  0  0  0  0  0  0  0  0  0  0
    1.6392   -1.1518   -0.0242 C   0  0  0  0  0  0  0  0  0  0  0  0
  1  2  1  0
  2  3  1  0
  3  4  2  0
  4  5  1  0
  5  6  1  0
  5  7  2  0
  7  8  1  0
  8  9  1  0
  8 10  2  0
 10 11  1  0
 11 12  2  0
 12 13  1  0
 13 14  2  0
 14 15  1  0
 14 16  1  0
 16 17  2  0
 10  3  1  0
 17 11  1  0
M  END
>  <zinc_id>  (199) 
ZINC000013282256

>  <ortholog_name>  (199) 
DRTS_PLAFK

>  <gene_name>  (199) 
DRTS_PLAFK

>  <affinity>  (199) 
7.50

>  <chembldocid>  (199) 
16871

>  <title>  (199) 
None

>  <reference.pubmed_id>  (199) 
11881993

>  <reference.doi>  (199) 
None

>  <reference.chembl_id>  (199) 
CHEMBL1135602

>  <reference.journal>  (199) 
J. Med. Chem.

>  <reference.year>  (199) 
2002

$$$$

     RDKit          3D

 17 18  0  0  0  0  0  0  0  0999 V2000
   -1.2241    0.8388    2.5398 C   0  0  0  0  0  0  0  0  0  0  0  0
   -1.5125   -0.5239    1.9022 C   0  0  0  0  0  0  0  0  0  0  0  0
   -1.6872   -0.3051    0.4455 C   0  0  0  0  0  0  0  0  0  0  0  0
   -2.9155   -0.3103   -0.1279 N   0  0  0  0  0  0  0  0  0  0  0  0
   -3.1248   -0.1155   -1.4319 C   0  0  0  0  0  0  0  0  0  0  0  0
   -4.4175   -0.1236   -2.0251 N   0  0  0  0  0  0  0  0  0  0  0  0
   -2.0550    0.0985   -2.2245 N   0  0  0  0  0  0  0  0  0  0  0  0
   -0.8272    0.1101   -1.6909 C   0  0  0  0  0  0  0  0  0  0  0  0
    0.3037    0.3394   -2.5400 N   0  0  0  0  0  0  0  0  0  0  0  0
   -0.5876   -0.0919   -0.3271 C   0  0  0  0  0  0  0  0  0  0  0  0
    0.7939   -0.0684    0.1631 C   0  0  0  0  0  0  0  0  0  0  0  0
    1.3037    1.0277    0.8166 C   0  0  0  0  0  0  0  0  0  0  0  0
    2.6206    1.0559    1.2760 C   0  0  0  0  0  0  0  0  0  0  0  0
    3.4653   -0.0275    1.0875 C   0  0  0  0  0  0  0  0  0  0  0  0
    5.2747    0.0294    1.7280 Br  0  0  0  0  0  0  0  0  0  0  0  0
    2.9500   -1.1234    0.4329 C   0  0  0  0  0  0  0  0  0  0  0  0
    1.6392   -1.1518   -0.0242 C   0  0  0  0  0  0  0  0  0  0  0  0
  1  2  1  0
  2  3  1  0
  3  4  2  0
  4  5  1  0
  5  6  1  0
  5  7  2  0
  7  8  1  0
  8  9  1  0
  8 10  2  0
 10 11  1  0
 11 12  2  0
 12 13  1  0
 13 14  2  0
 14 15  1  0
 14 16  1  0
 16 17  2  0
 10  3  1  0
 17 11  1  0
M  END
>  <zinc_id>  (200) 
ZINC000013282256

>  <ortholog_name>  (200) 
DRTS_PLAFK

>  <gene_name>  (200) 
DRTS_PLAFK

>  <affinity>  (200) 
7.35

>  <chembldocid>  (200) 
16871

>  <title>  (200) 
None

>  <reference.pubmed_id>  (200) 
11881993

>  <reference.doi>  (200) 
None

>  <reference.chembl_id>  (200) 
CHEMBL1135602

>  <reference.journal>  (200) 
J. Med. Chem.

>  <reference.year>  (200) 
2002

$$$$

     RDKit          3D

 16 17  0  0  0  0  0  0  0  0999 V2000
    0.3918    1.3822   -2.5162 C   0  0  0  0  0  0  0  0  0  0  0  0
    0.4541   -0.1279   -2.2686 C   0  0  0  0  0  0  0  0  0  0  0  0
    1.0546   -0.3769   -0.9173 C   0  0  0  0  0  0  0  0  0  0  0  0
    2.3617   -0.7400   -0.8109 N   0  0  0  0  0  0  0  0  0  0  0  0
    2.9392   -0.9107    0.4184 C   0  0  0  0  0  0  0  0  0  0  0  0
    4.3109   -1.2780    0.5714 N   0  0  0  0  0  0  0  0  0  0  0  0
    2.1721   -0.7140    1.4950 N   0  0  0  0  0  0  0  0  0  0  0  0
    0.8690   -0.3562    1.4032 C   0  0  0  0  0  0  0  0  0  0  0  0
    0.0782   -0.1498    2.5854 N   0  0  0  0  0  0  0  0  0  0  0  0
    0.2787   -0.1763    0.1950 C   0  0  0  0  0  0  0  0  0  0  0  0
   -1.1415    0.2141    0.0737 C   0  0  0  0  0  0  0  0  0  0  0  0
   -2.1447   -0.7105    0.3571 C   0  0  0  0  0  0  0  0  0  0  0  0
   -3.4882   -0.3576    0.2586 C   0  0  0  0  0  0  0  0  0  0  0  0
   -3.8045    0.9521   -0.1308 C   0  0  0  0  0  0  0  0  0  0  0  0
   -2.8234    1.8753   -0.4131 C   0  0  0  0  0  0  0  0  0  0  0  0
   -1.5080    1.4741   -0.3009 C   0  0  0  0  0  0  0  0  0  0  0  0
  1  2  1  0
  2  3  1  0
  3  4  2  0
  4  5  1  0
  5  6  1  0
  5  7  2  0
  7  8  1  0
  8  9  1  0
  8 10  2  0
 10 11  1  0
 11 12  2  0
 12 13  1  0
 13 14  2  0
 14 15  1  0
 15 16  2  0
 10  3  1  0
 16 11  1  0
M  END
>  <zinc_id>  (201) 
ZINC000013282257

>  <ortholog_name>  (201) 
DRTS_PLAFK

>  <gene_name>  (201) 
DRTS_PLAFK

>  <affinity>  (201) 
7.00

>  <chembldocid>  (201) 
21047

>  <title>  (201) 
None

>  <reference.pubmed_id>  (201) 
15293997

>  <reference.doi>  (201) 
None

>  <reference.chembl_id>  (201) 
CHEMBL1138679

>  <reference.journal>  (201) 
J. Med. Chem.

>  <reference.year>  (201) 
2004

$$$$

     RDKit          3D

 16 17  0  0  0  0  0  0  0  0999 V2000
    0.3918    1.3822   -2.5162 C   0  0  0  0  0  0  0  0  0  0  0  0
    0.4541   -0.1279   -2.2686 C   0  0  0  0  0  0  0  0  0  0  0  0
    1.0546   -0.3769   -0.9173 C   0  0  0  0  0  0  0  0  0  0  0  0
    2.3617   -0.7400   -0.8109 N   0  0  0  0  0  0  0  0  0  0  0  0
    2.9392   -0.9107    0.4184 C   0  0  0  0  0  0  0  0  0  0  0  0
    4.3109   -1.2780    0.5714 N   0  0  0  0  0  0  0  0  0  0  0  0
    2.1721   -0.7140    1.4950 N   0  0  0  0  0  0  0  0  0  0  0  0
    0.8690   -0.3562    1.4032 C   0  0  0  0  0  0  0  0  0  0  0  0
    0.0782   -0.1498    2.5854 N   0  0  0  0  0  0  0  0  0  0  0  0
    0.2787   -0.1763    0.1950 C   0  0  0  0  0  0  0  0  0  0  0  0
   -1.1415    0.2141    0.0737 C   0  0  0  0  0  0  0  0  0  0  0  0
   -2.1447   -0.7105    0.3571 C   0  0  0  0  0  0  0  0  0  0  0  0
   -3.4882   -0.3576    0.2586 C   0  0  0  0  0  0  0  0  0  0  0  0
   -3.8045    0.9521   -0.1308 C   0  0  0  0  0  0  0  0  0  0  0  0
   -2.8234    1.8753   -0.4131 C   0  0  0  0  0  0  0  0  0  0  0  0
   -1.5080    1.4741   -0.3009 C   0  0  0  0  0  0  0  0  0  0  0  0
  1  2  1  0
  2  3  1  0
  3  4  2  0
  4  5  1  0
  5  6  1  0
  5  7  2  0
  7  8  1  0
  8  9  1  0
  8 10  2  0
 10 11  1  0
 11 12  2  0
 12 13  1  0
 13 14  2  0
 14 15  1  0
 15 16  2  0
 10  3  1  0
 16 11  1  0
M  END
>  <zinc_id>  (202) 
ZINC000013282257

>  <ortholog_name>  (202) 
DRTS_PLAFK

>  <gene_name>  (202) 
DRTS_PLAFK

>  <affinity>  (202) 
8.64

>  <chembldocid>  (202) 
16871

>  <title>  (202) 
None

>  <reference.pubmed_id>  (202) 
11881993

>  <reference.doi>  (202) 
None

>  <reference.chembl_id>  (202) 
CHEMBL1135602

>  <reference.journal>  (202) 
J. Med. Chem.

>  <reference.year>  (202) 
2002

$$$$

     RDKit          3D

 16 17  0  0  0  0  0  0  0  0999 V2000
    0.3918    1.3822   -2.5162 C   0  0  0  0  0  0  0  0  0  0  0  0
    0.4541   -0.1279   -2.2686 C   0  0  0  0  0  0  0  0  0  0  0  0
    1.0546   -0.3769   -0.9173 C   0  0  0  0  0  0  0  0  0  0  0  0
    2.3617   -0.7400   -0.8109 N   0  0  0  0  0  0  0  0  0  0  0  0
    2.9392   -0.9107    0.4184 C   0  0  0  0  0  0  0  0  0  0  0  0
    4.3109   -1.2780    0.5714 N   0  0  0  0  0  0  0  0  0  0  0  0
    2.1721   -0.7140    1.4950 N   0  0  0  0  0  0  0  0  0  0  0  0
    0.8690   -0.3562    1.4032 C   0  0  0  0  0  0  0  0  0  0  0  0
    0.0782   -0.1498    2.5854 N   0  0  0  0  0  0  0  0  0  0  0  0
    0.2787   -0.1763    0.1950 C   0  0  0  0  0  0  0  0  0  0  0  0
   -1.1415    0.2141    0.0737 C   0  0  0  0  0  0  0  0  0  0  0  0
   -2.1447   -0.7105    0.3571 C   0  0  0  0  0  0  0  0  0  0  0  0
   -3.4882   -0.3576    0.2586 C   0  0  0  0  0  0  0  0  0  0  0  0
   -3.8045    0.9521   -0.1308 C   0  0  0  0  0  0  0  0  0  0  0  0
   -2.8234    1.8753   -0.4131 C   0  0  0  0  0  0  0  0  0  0  0  0
   -1.5080    1.4741   -0.3009 C   0  0  0  0  0  0  0  0  0  0  0  0
  1  2  1  0
  2  3  1  0
  3  4  2  0
  4  5  1  0
  5  6  1  0
  5  7  2  0
  7  8  1  0
  8  9  1  0
  8 10  2  0
 10 11  1  0
 11 12  2  0
 12 13  1  0
 13 14  2  0
 14 15  1  0
 15 16  2  0
 10  3  1  0
 16 11  1  0
M  END
>  <zinc_id>  (203) 
ZINC000013282257

>  <ortholog_name>  (203) 
DRTS_PLAFK

>  <gene_name>  (203) 
DRTS_PLAFK

>  <affinity>  (203) 
8.64

>  <chembldocid>  (203) 
17662

>  <title>  (203) 
None

>  <reference.pubmed_id>  (203) 
14736247

>  <reference.doi>  (203) 
None

>  <reference.chembl_id>  (203) 
CHEMBL1138835

>  <reference.journal>  (203) 
J. Med. Chem.

>  <reference.year>  (203) 
2004

$$$$

     RDKit          3D

 16 17  0  0  0  0  0  0  0  0999 V2000
    0.3918    1.3822   -2.5162 C   0  0  0  0  0  0  0  0  0  0  0  0
    0.4541   -0.1279   -2.2686 C   0  0  0  0  0  0  0  0  0  0  0  0
    1.0546   -0.3769   -0.9173 C   0  0  0  0  0  0  0  0  0  0  0  0
    2.3617   -0.7400   -0.8109 N   0  0  0  0  0  0  0  0  0  0  0  0
    2.9392   -0.9107    0.4184 C   0  0  0  0  0  0  0  0  0  0  0  0
    4.3109   -1.2780    0.5714 N   0  0  0  0  0  0  0  0  0  0  0  0
    2.1721   -0.7140    1.4950 N   0  0  0  0  0  0  0  0  0  0  0  0
    0.8690   -0.3562    1.4032 C   0  0  0  0  0  0  0  0  0  0  0  0
    0.0782   -0.1498    2.5854 N   0  0  0  0  0  0  0  0  0  0  0  0
    0.2787   -0.1763    0.1950 C   0  0  0  0  0  0  0  0  0  0  0  0
   -1.1415    0.2141    0.0737 C   0  0  0  0  0  0  0  0  0  0  0  0
   -2.1447   -0.7105    0.3571 C   0  0  0  0  0  0  0  0  0  0  0  0
   -3.4882   -0.3576    0.2586 C   0  0  0  0  0  0  0  0  0  0  0  0
   -3.8045    0.9521   -0.1308 C   0  0  0  0  0  0  0  0  0  0  0  0
   -2.8234    1.8753   -0.4131 C   0  0  0  0  0  0  0  0  0  0  0  0
   -1.5080    1.4741   -0.3009 C   0  0  0  0  0  0  0  0  0  0  0  0
  1  2  1  0
  2  3  1  0
  3  4  2  0
  4  5  1  0
  5  6  1  0
  5  7  2  0
  7  8  1  0
  8  9  1  0
  8 10  2  0
 10 11  1  0
 11 12  2  0
 12 13  1  0
 13 14  2  0
 14 15  1  0
 15 16  2  0
 10  3  1  0
 16 11  1  0
M  END
>  <zinc_id>  (204) 
ZINC000013282257

>  <ortholog_name>  (204) 
DRTS_PLAFK

>  <gene_name>  (204) 
DRTS_PLAFK

>  <affinity>  (204) 
7.60

>  <chembldocid>  (204) 
17662

>  <title>  (204) 
None

>  <reference.pubmed_id>  (204) 
14736247

>  <reference.doi>  (204) 
None

>  <reference.chembl_id>  (204) 
CHEMBL1138835

>  <reference.journal>  (204) 
J. Med. Chem.

>  <reference.year>  (204) 
2004

$$$$

     RDKit          3D

 16 17  0  0  0  0  0  0  0  0999 V2000
    0.3918    1.3822   -2.5162 C   0  0  0  0  0  0  0  0  0  0  0  0
    0.4541   -0.1279   -2.2686 C   0  0  0  0  0  0  0  0  0  0  0  0
    1.0546   -0.3769   -0.9173 C   0  0  0  0  0  0  0  0  0  0  0  0
    2.3617   -0.7400   -0.8109 N   0  0  0  0  0  0  0  0  0  0  0  0
    2.9392   -0.9107    0.4184 C   0  0  0  0  0  0  0  0  0  0  0  0
    4.3109   -1.2780    0.5714 N   0  0  0  0  0  0  0  0  0  0  0  0
    2.1721   -0.7140    1.4950 N   0  0  0  0  0  0  0  0  0  0  0  0
    0.8690   -0.3562    1.4032 C   0  0  0  0  0  0  0  0  0  0  0  0
    0.0782   -0.1498    2.5854 N   0  0  0  0  0  0  0  0  0  0  0  0
    0.2787   -0.1763    0.1950 C   0  0  0  0  0  0  0  0  0  0  0  0
   -1.1415    0.2141    0.0737 C   0  0  0  0  0  0  0  0  0  0  0  0
   -2.1447   -0.7105    0.3571 C   0  0  0  0  0  0  0  0  0  0  0  0
   -3.4882   -0.3576    0.2586 C   0  0  0  0  0  0  0  0  0  0  0  0
   -3.8045    0.9521   -0.1308 C   0  0  0  0  0  0  0  0  0  0  0  0
   -2.8234    1.8753   -0.4131 C   0  0  0  0  0  0  0  0  0  0  0  0
   -1.5080    1.4741   -0.3009 C   0  0  0  0  0  0  0  0  0  0  0  0
  1  2  1  0
  2  3  1  0
  3  4  2  0
  4  5  1  0
  5  6  1  0
  5  7  2  0
  7  8  1  0
  8  9  1  0
  8 10  2  0
 10 11  1  0
 11 12  2  0
 12 13  1  0
 13 14  2  0
 14 15  1  0
 15 16  2  0
 10  3  1  0
 16 11  1  0
M  END
>  <zinc_id>  (205) 
ZINC000013282257

>  <ortholog_name>  (205) 
DRTS_PLAFK

>  <gene_name>  (205) 
DRTS_PLAFK

>  <affinity>  (205) 
8.52

>  <chembldocid>  (205) 
17662

>  <title>  (205) 
None

>  <reference.pubmed_id>  (205) 
14736247

>  <reference.doi>  (205) 
None

>  <reference.chembl_id>  (205) 
CHEMBL1138835

>  <reference.journal>  (205) 
J. Med. Chem.

>  <reference.year>  (205) 
2004

$$$$

     RDKit          3D

 16 17  0  0  0  0  0  0  0  0999 V2000
    0.3918    1.3822   -2.5162 C   0  0  0  0  0  0  0  0  0  0  0  0
    0.4541   -0.1279   -2.2686 C   0  0  0  0  0  0  0  0  0  0  0  0
    1.0546   -0.3769   -0.9173 C   0  0  0  0  0  0  0  0  0  0  0  0
    2.3617   -0.7400   -0.8109 N   0  0  0  0  0  0  0  0  0  0  0  0
    2.9392   -0.9107    0.4184 C   0  0  0  0  0  0  0  0  0  0  0  0
    4.3109   -1.2780    0.5714 N   0  0  0  0  0  0  0  0  0  0  0  0
    2.1721   -0.7140    1.4950 N   0  0  0  0  0  0  0  0  0  0  0  0
    0.8690   -0.3562    1.4032 C   0  0  0  0  0  0  0  0  0  0  0  0
    0.0782   -0.1498    2.5854 N   0  0  0  0  0  0  0  0  0  0  0  0
    0.2787   -0.1763    0.1950 C   0  0  0  0  0  0  0  0  0  0  0  0
   -1.1415    0.2141    0.0737 C   0  0  0  0  0  0  0  0  0  0  0  0
   -2.1447   -0.7105    0.3571 C   0  0  0  0  0  0  0  0  0  0  0  0
   -3.4882   -0.3576    0.2586 C   0  0  0  0  0  0  0  0  0  0  0  0
   -3.8045    0.9521   -0.1308 C   0  0  0  0  0  0  0  0  0  0  0  0
   -2.8234    1.8753   -0.4131 C   0  0  0  0  0  0  0  0  0  0  0  0
   -1.5080    1.4741   -0.3009 C   0  0  0  0  0  0  0  0  0  0  0  0
  1  2  1  0
  2  3  1  0
  3  4  2  0
  4  5  1  0
  5  6  1  0
  5  7  2  0
  7  8  1  0
  8  9  1  0
  8 10  2  0
 10 11  1  0
 11 12  2  0
 12 13  1  0
 13 14  2  0
 14 15  1  0
 15 16  2  0
 10  3  1  0
 16 11  1  0
M  END
>  <zinc_id>  (206) 
ZINC000013282257

>  <ortholog_name>  (206) 
DRTS_PLAFK

>  <gene_name>  (206) 
DRTS_PLAFK

>  <affinity>  (206) 
7.49

>  <chembldocid>  (206) 
17662

>  <title>  (206) 
None

>  <reference.pubmed_id>  (206) 
14736247

>  <reference.doi>  (206) 
None

>  <reference.chembl_id>  (206) 
CHEMBL1138835

>  <reference.journal>  (206) 
J. Med. Chem.

>  <reference.year>  (206) 
2004

$$$$

     RDKit          3D

 16 17  0  0  0  0  0  0  0  0999 V2000
    0.3918    1.3822   -2.5162 C   0  0  0  0  0  0  0  0  0  0  0  0
    0.4541   -0.1279   -2.2686 C   0  0  0  0  0  0  0  0  0  0  0  0
    1.0546   -0.3769   -0.9173 C   0  0  0  0  0  0  0  0  0  0  0  0
    2.3617   -0.7400   -0.8109 N   0  0  0  0  0  0  0  0  0  0  0  0
    2.9392   -0.9107    0.4184 C   0  0  0  0  0  0  0  0  0  0  0  0
    4.3109   -1.2780    0.5714 N   0  0  0  0  0  0  0  0  0  0  0  0
    2.1721   -0.7140    1.4950 N   0  0  0  0  0  0  0  0  0  0  0  0
    0.8690   -0.3562    1.4032 C   0  0  0  0  0  0  0  0  0  0  0  0
    0.0782   -0.1498    2.5854 N   0  0  0  0  0  0  0  0  0  0  0  0
    0.2787   -0.1763    0.1950 C   0  0  0  0  0  0  0  0  0  0  0  0
   -1.1415    0.2141    0.0737 C   0  0  0  0  0  0  0  0  0  0  0  0
   -2.1447   -0.7105    0.3571 C   0  0  0  0  0  0  0  0  0  0  0  0
   -3.4882   -0.3576    0.2586 C   0  0  0  0  0  0  0  0  0  0  0  0
   -3.8045    0.9521   -0.1308 C   0  0  0  0  0  0  0  0  0  0  0  0
   -2.8234    1.8753   -0.4131 C   0  0  0  0  0  0  0  0  0  0  0  0
   -1.5080    1.4741   -0.3009 C   0  0  0  0  0  0  0  0  0  0  0  0
  1  2  1  0
  2  3  1  0
  3  4  2  0
  4  5  1  0
  5  6  1  0
  5  7  2  0
  7  8  1  0
  8  9  1  0
  8 10  2  0
 10 11  1  0
 11 12  2  0
 12 13  1  0
 13 14  2  0
 14 15  1  0
 15 16  2  0
 10  3  1  0
 16 11  1  0
M  END
>  <zinc_id>  (207) 
ZINC000013282257

>  <ortholog_name>  (207) 
DRTS_PLAFK

>  <gene_name>  (207) 
DRTS_PLAFK

>  <affinity>  (207) 
5.48

>  <chembldocid>  (207) 
16871

>  <title>  (207) 
None

>  <reference.pubmed_id>  (207) 
11881993

>  <reference.doi>  (207) 
None

>  <reference.chembl_id>  (207) 
CHEMBL1135602

>  <reference.journal>  (207) 
J. Med. Chem.

>  <reference.year>  (207) 
2002

$$$$

     RDKit          3D

 16 17  0  0  0  0  0  0  0  0999 V2000
    0.3918    1.3822   -2.5162 C   0  0  0  0  0  0  0  0  0  0  0  0
    0.4541   -0.1279   -2.2686 C   0  0  0  0  0  0  0  0  0  0  0  0
    1.0546   -0.3769   -0.9173 C   0  0  0  0  0  0  0  0  0  0  0  0
    2.3617   -0.7400   -0.8109 N   0  0  0  0  0  0  0  0  0  0  0  0
    2.9392   -0.9107    0.4184 C   0  0  0  0  0  0  0  0  0  0  0  0
    4.3109   -1.2780    0.5714 N   0  0  0  0  0  0  0  0  0  0  0  0
    2.1721   -0.7140    1.4950 N   0  0  0  0  0  0  0  0  0  0  0  0
    0.8690   -0.3562    1.4032 C   0  0  0  0  0  0  0  0  0  0  0  0
    0.0782   -0.1498    2.5854 N   0  0  0  0  0  0  0  0  0  0  0  0
    0.2787   -0.1763    0.1950 C   0  0  0  0  0  0  0  0  0  0  0  0
   -1.1415    0.2141    0.0737 C   0  0  0  0  0  0  0  0  0  0  0  0
   -2.1447   -0.7105    0.3571 C   0  0  0  0  0  0  0  0  0  0  0  0
   -3.4882   -0.3576    0.2586 C   0  0  0  0  0  0  0  0  0  0  0  0
   -3.8045    0.9521   -0.1308 C   0  0  0  0  0  0  0  0  0  0  0  0
   -2.8234    1.8753   -0.4131 C   0  0  0  0  0  0  0  0  0  0  0  0
   -1.5080    1.4741   -0.3009 C   0  0  0  0  0  0  0  0  0  0  0  0
  1  2  1  0
  2  3  1  0
  3  4  2  0
  4  5  1  0
  5  6  1  0
  5  7  2  0
  7  8  1  0
  8  9  1  0
  8 10  2  0
 10 11  1  0
 11 12  2  0
 12 13  1  0
 13 14  2  0
 14 15  1  0
 15 16  2  0
 10  3  1  0
 16 11  1  0
M  END
>  <zinc_id>  (208) 
ZINC000013282257

>  <ortholog_name>  (208) 
DRTS_PLAFK

>  <gene_name>  (208) 
DRTS_PLAFK

>  <affinity>  (208) 
8.35

>  <chembldocid>  (208) 
16871

>  <title>  (208) 
None

>  <reference.pubmed_id>  (208) 
11881993

>  <reference.doi>  (208) 
None

>  <reference.chembl_id>  (208) 
CHEMBL1135602

>  <reference.journal>  (208) 
J. Med. Chem.

>  <reference.year>  (208) 
2002

$$$$

     RDKit          3D

 16 17  0  0  0  0  0  0  0  0999 V2000
    0.3918    1.3822   -2.5162 C   0  0  0  0  0  0  0  0  0  0  0  0
    0.4541   -0.1279   -2.2686 C   0  0  0  0  0  0  0  0  0  0  0  0
    1.0546   -0.3769   -0.9173 C   0  0  0  0  0  0  0  0  0  0  0  0
    2.3617   -0.7400   -0.8109 N   0  0  0  0  0  0  0  0  0  0  0  0
    2.9392   -0.9107    0.4184 C   0  0  0  0  0  0  0  0  0  0  0  0
    4.3109   -1.2780    0.5714 N   0  0  0  0  0  0  0  0  0  0  0  0
    2.1721   -0.7140    1.4950 N   0  0  0  0  0  0  0  0  0  0  0  0
    0.8690   -0.3562    1.4032 C   0  0  0  0  0  0  0  0  0  0  0  0
    0.0782   -0.1498    2.5854 N   0  0  0  0  0  0  0  0  0  0  0  0
    0.2787   -0.1763    0.1950 C   0  0  0  0  0  0  0  0  0  0  0  0
   -1.1415    0.2141    0.0737 C   0  0  0  0  0  0  0  0  0  0  0  0
   -2.1447   -0.7105    0.3571 C   0  0  0  0  0  0  0  0  0  0  0  0
   -3.4882   -0.3576    0.2586 C   0  0  0  0  0  0  0  0  0  0  0  0
   -3.8045    0.9521   -0.1308 C   0  0  0  0  0  0  0  0  0  0  0  0
   -2.8234    1.8753   -0.4131 C   0  0  0  0  0  0  0  0  0  0  0  0
   -1.5080    1.4741   -0.3009 C   0  0  0  0  0  0  0  0  0  0  0  0
  1  2  1  0
  2  3  1  0
  3  4  2  0
  4  5  1  0
  5  6  1  0
  5  7  2  0
  7  8  1  0
  8  9  1  0
  8 10  2  0
 10 11  1  0
 11 12  2  0
 12 13  1  0
 13 14  2  0
 14 15  1  0
 15 16  2  0
 10  3  1  0
 16 11  1  0
M  END
>  <zinc_id>  (209) 
ZINC000013282257

>  <ortholog_name>  (209) 
DRTS_PLAFK

>  <gene_name>  (209) 
DRTS_PLAFK

>  <affinity>  (209) 
8.06

>  <chembldocid>  (209) 
16871

>  <title>  (209) 
None

>  <reference.pubmed_id>  (209) 
11881993

>  <reference.doi>  (209) 
None

>  <reference.chembl_id>  (209) 
CHEMBL1135602

>  <reference.journal>  (209) 
J. Med. Chem.

>  <reference.year>  (209) 
2002

$$$$

     RDKit          3D

 16 17  0  0  0  0  0  0  0  0999 V2000
    0.5307   -1.9406    1.7752 C   0  0  0  0  0  0  0  0  0  0  0  0
    1.3404   -1.0122    0.9506 C   0  0  0  0  0  0  0  0  0  0  0  0
    2.7006   -1.0504    0.9286 N   0  0  0  0  0  0  0  0  0  0  0  0
    3.4294   -0.2161    0.1889 C   0  0  0  0  0  0  0  0  0  0  0  0
    4.8696   -0.2683    0.1722 N   0  0  0  0  0  0  0  0  0  0  0  0
    2.8067    0.7005   -0.5678 N   0  0  0  0  0  0  0  0  0  0  0  0
    1.4484    0.7636   -0.5672 C   0  0  0  0  0  0  0  0  0  0  0  0
    0.7716    1.7357   -1.3764 N   0  0  0  0  0  0  0  0  0  0  0  0
    0.6557   -0.0861    0.1891 C   0  0  0  0  0  0  0  0  0  0  0  0
   -0.7966    0.0268    0.1529 C   0  0  0  0  0  0  0  0  0  0  0  0
   -1.5498   -0.5128   -0.8508 C   0  0  0  0  0  0  0  0  0  0  0  0
   -2.9454   -0.3897   -0.8532 C   0  0  0  0  0  0  0  0  0  0  0  0
   -3.6150    0.2806    0.1591 C   0  0  0  0  0  0  0  0  0  0  0  0
   -5.3582    0.4430    0.1693 Cl  0  0  0  0  0  0  0  0  0  0  0  0
   -2.8257    0.8282    1.1768 C   0  0  0  0  0  0  0  0  0  0  0  0
   -1.4624    0.6977    1.1615 C   0  0  0  0  0  0  0  0  0  0  0  0
  1  2  1  0
  2  3  2  0
  3  4  1  0
  4  5  1  0
  4  6  2  0
  6  7  1  0
  7  8  1  0
  7  9  2  0
  9 10  1  0
 10 11  2  0
 11 12  1  0
 12 13  2  0
 13 14  1  0
 13 15  1  0
 15 16  2  0
  9  2  1  0
 16 10  1  0
M  END
>  <zinc_id>  (210) 
ZINC000013282284

>  <ortholog_name>  (210) 
DRTS_PLAFK

>  <gene_name>  (210) 
DRTS_PLAFK

>  <affinity>  (210) 
9.08

>  <chembldocid>  (210) 
21047

>  <title>  (210) 
None

>  <reference.pubmed_id>  (210) 
15293997

>  <reference.doi>  (210) 
None

>  <reference.chembl_id>  (210) 
CHEMBL1138679

>  <reference.journal>  (210) 
J. Med. Chem.

>  <reference.year>  (210) 
2004

$$$$

     RDKit          3D

 16 17  0  0  0  0  0  0  0  0999 V2000
    0.5307   -1.9406    1.7752 C   0  0  0  0  0  0  0  0  0  0  0  0
    1.3404   -1.0122    0.9506 C   0  0  0  0  0  0  0  0  0  0  0  0
    2.7006   -1.0504    0.9286 N   0  0  0  0  0  0  0  0  0  0  0  0
    3.4294   -0.2161    0.1889 C   0  0  0  0  0  0  0  0  0  0  0  0
    4.8696   -0.2683    0.1722 N   0  0  0  0  0  0  0  0  0  0  0  0
    2.8067    0.7005   -0.5678 N   0  0  0  0  0  0  0  0  0  0  0  0
    1.4484    0.7636   -0.5672 C   0  0  0  0  0  0  0  0  0  0  0  0
    0.7716    1.7357   -1.3764 N   0  0  0  0  0  0  0  0  0  0  0  0
    0.6557   -0.0861    0.1891 C   0  0  0  0  0  0  0  0  0  0  0  0
   -0.7966    0.0268    0.1529 C   0  0  0  0  0  0  0  0  0  0  0  0
   -1.5498   -0.5128   -0.8508 C   0  0  0  0  0  0  0  0  0  0  0  0
   -2.9454   -0.3897   -0.8532 C   0  0  0  0  0  0  0  0  0  0  0  0
   -3.6150    0.2806    0.1591 C   0  0  0  0  0  0  0  0  0  0  0  0
   -5.3582    0.4430    0.1693 Cl  0  0  0  0  0  0  0  0  0  0  0  0
   -2.8257    0.8282    1.1768 C   0  0  0  0  0  0  0  0  0  0  0  0
   -1.4624    0.6977    1.1615 C   0  0  0  0  0  0  0  0  0  0  0  0
  1  2  1  0
  2  3  2  0
  3  4  1  0
  4  5  1  0
  4  6  2  0
  6  7  1  0
  7  8  1  0
  7  9  2  0
  9 10  1  0
 10 11  2  0
 11 12  1  0
 12 13  2  0
 13 14  1  0
 13 15  1  0
 15 16  2  0
  9  2  1  0
 16 10  1  0
M  END
>  <zinc_id>  (211) 
ZINC000013282284

>  <ortholog_name>  (211) 
DRTS_PLAFK

>  <gene_name>  (211) 
DRTS_PLAFK

>  <affinity>  (211) 
6.98

>  <chembldocid>  (211) 
16871

>  <title>  (211) 
None

>  <reference.pubmed_id>  (211) 
11881993

>  <reference.doi>  (211) 
None

>  <reference.chembl_id>  (211) 
CHEMBL1135602

>  <reference.journal>  (211) 
J. Med. Chem.

>  <reference.year>  (211) 
2002

$$$$

     RDKit          3D

 16 17  0  0  0  0  0  0  0  0999 V2000
    0.5307   -1.9406    1.7752 C   0  0  0  0  0  0  0  0  0  0  0  0
    1.3404   -1.0122    0.9506 C   0  0  0  0  0  0  0  0  0  0  0  0
    2.7006   -1.0504    0.9286 N   0  0  0  0  0  0  0  0  0  0  0  0
    3.4294   -0.2161    0.1889 C   0  0  0  0  0  0  0  0  0  0  0  0
    4.8696   -0.2683    0.1722 N   0  0  0  0  0  0  0  0  0  0  0  0
    2.8067    0.7005   -0.5678 N   0  0  0  0  0  0  0  0  0  0  0  0
    1.4484    0.7636   -0.5672 C   0  0  0  0  0  0  0  0  0  0  0  0
    0.7716    1.7357   -1.3764 N   0  0  0  0  0  0  0  0  0  0  0  0
    0.6557   -0.0861    0.1891 C   0  0  0  0  0  0  0  0  0  0  0  0
   -0.7966    0.0268    0.1529 C   0  0  0  0  0  0  0  0  0  0  0  0
   -1.5498   -0.5128   -0.8508 C   0  0  0  0  0  0  0  0  0  0  0  0
   -2.9454   -0.3897   -0.8532 C   0  0  0  0  0  0  0  0  0  0  0  0
   -3.6150    0.2806    0.1591 C   0  0  0  0  0  0  0  0  0  0  0  0
   -5.3582    0.4430    0.1693 Cl  0  0  0  0  0  0  0  0  0  0  0  0
   -2.8257    0.8282    1.1768 C   0  0  0  0  0  0  0  0  0  0  0  0
   -1.4624    0.6977    1.1615 C   0  0  0  0  0  0  0  0  0  0  0  0
  1  2  1  0
  2  3  2  0
  3  4  1  0
  4  5  1  0
  4  6  2  0
  6  7  1  0
  7  8  1  0
  7  9  2  0
  9 10  1  0
 10 11  2  0
 11 12  1  0
 12 13  2  0
 13 14  1  0
 13 15  1  0
 15 16  2  0
  9  2  1  0
 16 10  1  0
M  END
>  <zinc_id>  (212) 
ZINC000013282284

>  <ortholog_name>  (212) 
DRTS_PLAFK

>  <gene_name>  (212) 
DRTS_PLAFK

>  <affinity>  (212) 
6.85

>  <chembldocid>  (212) 
16871

>  <title>  (212) 
None

>  <reference.pubmed_id>  (212) 
11881993

>  <reference.doi>  (212) 
None

>  <reference.chembl_id>  (212) 
CHEMBL1135602

>  <reference.journal>  (212) 
J. Med. Chem.

>  <reference.year>  (212) 
2002

$$$$

     RDKit          3D

 16 17  0  0  0  0  0  0  0  0999 V2000
    0.5307   -1.9406    1.7752 C   0  0  0  0  0  0  0  0  0  0  0  0
    1.3404   -1.0122    0.9506 C   0  0  0  0  0  0  0  0  0  0  0  0
    2.7006   -1.0504    0.9286 N   0  0  0  0  0  0  0  0  0  0  0  0
    3.4294   -0.2161    0.1889 C   0  0  0  0  0  0  0  0  0  0  0  0
    4.8696   -0.2683    0.1722 N   0  0  0  0  0  0  0  0  0  0  0  0
    2.8067    0.7005   -0.5678 N   0  0  0  0  0  0  0  0  0  0  0  0
    1.4484    0.7636   -0.5672 C   0  0  0  0  0  0  0  0  0  0  0  0
    0.7716    1.7357   -1.3764 N   0  0  0  0  0  0  0  0  0  0  0  0
    0.6557   -0.0861    0.1891 C   0  0  0  0  0  0  0  0  0  0  0  0
   -0.7966    0.0268    0.1529 C   0  0  0  0  0  0  0  0  0  0  0  0
   -1.5498   -0.5128   -0.8508 C   0  0  0  0  0  0  0  0  0  0  0  0
   -2.9454   -0.3897   -0.8532 C   0  0  0  0  0  0  0  0  0  0  0  0
   -3.6150    0.2806    0.1591 C   0  0  0  0  0  0  0  0  0  0  0  0
   -5.3582    0.4430    0.1693 Cl  0  0  0  0  0  0  0  0  0  0  0  0
   -2.8257    0.8282    1.1768 C   0  0  0  0  0  0  0  0  0  0  0  0
   -1.4624    0.6977    1.1615 C   0  0  0  0  0  0  0  0  0  0  0  0
  1  2  1  0
  2  3  2  0
  3  4  1  0
  4  5  1  0
  4  6  2  0
  6  7  1  0
  7  8  1  0
  7  9  2  0
  9 10  1  0
 10 11  2  0
 11 12  1  0
 12 13  2  0
 13 14  1  0
 13 15  1  0
 15 16  2  0
  9  2  1  0
 16 10  1  0
M  END
>  <zinc_id>  (213) 
ZINC000013282284

>  <ortholog_name>  (213) 
DRTS_PLAFK

>  <gene_name>  (213) 
DRTS_PLAFK

>  <affinity>  (213) 
8.70

>  <chembldocid>  (213) 
16871

>  <title>  (213) 
None

>  <reference.pubmed_id>  (213) 
11881993

>  <reference.doi>  (213) 
None

>  <reference.chembl_id>  (213) 
CHEMBL1135602

>  <reference.journal>  (213) 
J. Med. Chem.

>  <reference.year>  (213) 
2002

$$$$

     RDKit          3D

 15 16  0  0  0  0  0  0  0  0999 V2000
    0.2176   -2.5168   -0.1736 C   0  0  0  0  0  0  0  0  0  0  0  0
    1.0037   -1.2362   -0.1086 C   0  0  0  0  0  0  0  0  0  0  0  0
    2.3542   -1.2292   -0.1525 N   0  0  0  0  0  0  0  0  0  0  0  0
    3.0893   -0.0924   -0.0989 C   0  0  0  0  0  0  0  0  0  0  0  0
    4.5063   -0.1723   -0.1598 N   0  0  0  0  0  0  0  0  0  0  0  0
    2.4211    1.0681    0.0038 N   0  0  0  0  0  0  0  0  0  0  0  0
    1.0683    1.1178    0.0509 C   0  0  0  0  0  0  0  0  0  0  0  0
    0.3589    2.3480    0.1539 N   0  0  0  0  0  0  0  0  0  0  0  0
    0.3045   -0.0574   -0.0053 C   0  0  0  0  0  0  0  0  0  0  0  0
   -1.1463    0.0322    0.0630 C   0  0  0  0  0  0  0  0  0  0  0  0
   -1.9006   -0.2893   -1.0454 C   0  0  0  0  0  0  0  0  0  0  0  0
   -3.2987   -0.2070   -1.0644 C   0  0  0  0  0  0  0  0  0  0  0  0
   -3.9299    0.2237    0.1072 C   0  0  0  0  0  0  0  0  0  0  0  0
   -3.2252    0.5547    1.2275 C   0  0  0  0  0  0  0  0  0  0  0  0
   -1.8232    0.4561    1.2022 C   0  0  0  0  0  0  0  0  0  0  0  0
  1  2  1  0
  2  3  2  0
  3  4  1  0
  4  5  1  0
  4  6  2  0
  6  7  1  0
  7  8  1  0
  7  9  2  0
  9 10  1  0
 10 11  2  0
 11 12  1  0
 12 13  2  0
 13 14  1  0
 14 15  2  0
  9  2  1  0
 15 10  1  0
M  END
>  <zinc_id>  (214) 
ZINC000013284968

>  <ortholog_name>  (214) 
DRTS_PLAFK

>  <gene_name>  (214) 
DRTS_PLAFK

>  <affinity>  (214) 
7.96

>  <chembldocid>  (214) 
16871

>  <title>  (214) 
None

>  <reference.pubmed_id>  (214) 
11881993

>  <reference.doi>  (214) 
None

>  <reference.chembl_id>  (214) 
CHEMBL1135602

>  <reference.journal>  (214) 
J. Med. Chem.

>  <reference.year>  (214) 
2002

$$$$

     RDKit          3D

 15 16  0  0  0  0  0  0  0  0999 V2000
    0.2176   -2.5168   -0.1736 C   0  0  0  0  0  0  0  0  0  0  0  0
    1.0037   -1.2362   -0.1086 C   0  0  0  0  0  0  0  0  0  0  0  0
    2.3542   -1.2292   -0.1525 N   0  0  0  0  0  0  0  0  0  0  0  0
    3.0893   -0.0924   -0.0989 C   0  0  0  0  0  0  0  0  0  0  0  0
    4.5063   -0.1723   -0.1598 N   0  0  0  0  0  0  0  0  0  0  0  0
    2.4211    1.0681    0.0038 N   0  0  0  0  0  0  0  0  0  0  0  0
    1.0683    1.1178    0.0509 C   0  0  0  0  0  0  0  0  0  0  0  0
    0.3589    2.3480    0.1539 N   0  0  0  0  0  0  0  0  0  0  0  0
    0.3045   -0.0574   -0.0053 C   0  0  0  0  0  0  0  0  0  0  0  0
   -1.1463    0.0322    0.0630 C   0  0  0  0  0  0  0  0  0  0  0  0
   -1.9006   -0.2893   -1.0454 C   0  0  0  0  0  0  0  0  0  0  0  0
   -3.2987   -0.2070   -1.0644 C   0  0  0  0  0  0  0  0  0  0  0  0
   -3.9299    0.2237    0.1072 C   0  0  0  0  0  0  0  0  0  0  0  0
   -3.2252    0.5547    1.2275 C   0  0  0  0  0  0  0  0  0  0  0  0
   -1.8232    0.4561    1.2022 C   0  0  0  0  0  0  0  0  0  0  0  0
  1  2  1  0
  2  3  2  0
  3  4  1  0
  4  5  1  0
  4  6  2  0
  6  7  1  0
  7  8  1  0
  7  9  2  0
  9 10  1  0
 10 11  2  0
 11 12  1  0
 12 13  2  0
 13 14  1  0
 14 15  2  0
  9  2  1  0
 15 10  1  0
M  END
>  <zinc_id>  (215) 
ZINC000013284968

>  <ortholog_name>  (215) 
DRTS_PLAFK

>  <gene_name>  (215) 
DRTS_PLAFK

>  <affinity>  (215) 
6.96

>  <chembldocid>  (215) 
21047

>  <title>  (215) 
None

>  <reference.pubmed_id>  (215) 
15293997

>  <reference.doi>  (215) 
None

>  <reference.chembl_id>  (215) 
CHEMBL1138679

>  <reference.journal>  (215) 
J. Med. Chem.

>  <reference.year>  (215) 
2004

$$$$

     RDKit          3D

 15 16  0  0  0  0  0  0  0  0999 V2000
    0.2176   -2.5168   -0.1736 C   0  0  0  0  0  0  0  0  0  0  0  0
    1.0037   -1.2362   -0.1086 C   0  0  0  0  0  0  0  0  0  0  0  0
    2.3542   -1.2292   -0.1525 N   0  0  0  0  0  0  0  0  0  0  0  0
    3.0893   -0.0924   -0.0989 C   0  0  0  0  0  0  0  0  0  0  0  0
    4.5063   -0.1723   -0.1598 N   0  0  0  0  0  0  0  0  0  0  0  0
    2.4211    1.0681    0.0038 N   0  0  0  0  0  0  0  0  0  0  0  0
    1.0683    1.1178    0.0509 C   0  0  0  0  0  0  0  0  0  0  0  0
    0.3589    2.3480    0.1539 N   0  0  0  0  0  0  0  0  0  0  0  0
    0.3045   -0.0574   -0.0053 C   0  0  0  0  0  0  0  0  0  0  0  0
   -1.1463    0.0322    0.0630 C   0  0  0  0  0  0  0  0  0  0  0  0
   -1.9006   -0.2893   -1.0454 C   0  0  0  0  0  0  0  0  0  0  0  0
   -3.2987   -0.2070   -1.0644 C   0  0  0  0  0  0  0  0  0  0  0  0
   -3.9299    0.2237    0.1072 C   0  0  0  0  0  0  0  0  0  0  0  0
   -3.2252    0.5547    1.2275 C   0  0  0  0  0  0  0  0  0  0  0  0
   -1.8232    0.4561    1.2022 C   0  0  0  0  0  0  0  0  0  0  0  0
  1  2  1  0
  2  3  2  0
  3  4  1  0
  4  5  1  0
  4  6  2  0
  6  7  1  0
  7  8  1  0
  7  9  2  0
  9 10  1  0
 10 11  2  0
 11 12  1  0
 12 13  2  0
 13 14  1  0
 14 15  2  0
  9  2  1  0
 15 10  1  0
M  END
>  <zinc_id>  (216) 
ZINC000013284968

>  <ortholog_name>  (216) 
DRTS_PLAFK

>  <gene_name>  (216) 
DRTS_PLAFK

>  <affinity>  (216) 
7.59

>  <chembldocid>  (216) 
16871

>  <title>  (216) 
None

>  <reference.pubmed_id>  (216) 
11881993

>  <reference.doi>  (216) 
None

>  <reference.chembl_id>  (216) 
CHEMBL1135602

>  <reference.journal>  (216) 
J. Med. Chem.

>  <reference.year>  (216) 
2002

$$$$

     RDKit          3D

 15 16  0  0  0  0  0  0  0  0999 V2000
    0.2176   -2.5168   -0.1736 C   0  0  0  0  0  0  0  0  0  0  0  0
    1.0037   -1.2362   -0.1086 C   0  0  0  0  0  0  0  0  0  0  0  0
    2.3542   -1.2292   -0.1525 N   0  0  0  0  0  0  0  0  0  0  0  0
    3.0893   -0.0924   -0.0989 C   0  0  0  0  0  0  0  0  0  0  0  0
    4.5063   -0.1723   -0.1598 N   0  0  0  0  0  0  0  0  0  0  0  0
    2.4211    1.0681    0.0038 N   0  0  0  0  0  0  0  0  0  0  0  0
    1.0683    1.1178    0.0509 C   0  0  0  0  0  0  0  0  0  0  0  0
    0.3589    2.3480    0.1539 N   0  0  0  0  0  0  0  0  0  0  0  0
    0.3045   -0.0574   -0.0053 C   0  0  0  0  0  0  0  0  0  0  0  0
   -1.1463    0.0322    0.0630 C   0  0  0  0  0  0  0  0  0  0  0  0
   -1.9006   -0.2893   -1.0454 C   0  0  0  0  0  0  0  0  0  0  0  0
   -3.2987   -0.2070   -1.0644 C   0  0  0  0  0  0  0  0  0  0  0  0
   -3.9299    0.2237    0.1072 C   0  0  0  0  0  0  0  0  0  0  0  0
   -3.2252    0.5547    1.2275 C   0  0  0  0  0  0  0  0  0  0  0  0
   -1.8232    0.4561    1.2022 C   0  0  0  0  0  0  0  0  0  0  0  0
  1  2  1  0
  2  3  2  0
  3  4  1  0
  4  5  1  0
  4  6  2  0
  6  7  1  0
  7  8  1  0
  7  9  2  0
  9 10  1  0
 10 11  2  0
 11 12  1  0
 12 13  2  0
 13 14  1  0
 14 15  2  0
  9  2  1  0
 15 10  1  0
M  END
>  <zinc_id>  (217) 
ZINC000013284968

>  <ortholog_name>  (217) 
DRTS_PLAFK

>  <gene_name>  (217) 
DRTS_PLAFK

>  <affinity>  (217) 
7.44

>  <chembldocid>  (217) 
16871

>  <title>  (217) 
None

>  <reference.pubmed_id>  (217) 
11881993

>  <reference.doi>  (217) 
None

>  <reference.chembl_id>  (217) 
CHEMBL1135602

>  <reference.journal>  (217) 
J. Med. Chem.

>  <reference.year>  (217) 
2002

$$$$

     RDKit          3D

 21 22  0  0  0  0  0  0  0  0999 V2000
   -4.6044    0.9758   -0.8106 C   0  0  0  0  0  0  0  0  0  0  0  0
   -3.6711    0.2220   -0.0922 O   0  0  0  0  0  0  0  0  0  0  0  0
   -3.9104   -0.6969    0.8497 C   0  0  0  0  0  0  0  0  0  0  0  0
   -5.1354   -0.9267    1.1411 O   0  0  0  0  0  0  0  0  0  0  0  0
   -2.9064   -1.4719    1.5861 C   0  0  0  0  0  0  0  0  0  0  0  0
   -3.2299   -2.6658    2.8103 S   0  0  0  0  0  0  0  0  0  0  0  0
   -1.6440   -3.1136    3.1876 C   0  0  0  0  0  0  0  0  0  0  0  0
   -0.9147   -2.3423    2.3718 C   0  0  0  0  0  0  0  0  0  0  0  0
   -1.5414   -1.4817    1.5306 C   0  0  0  0  0  0  0  0  0  0  0  0
   -0.7172   -0.6193    0.6181 C   0  0  0  0  0  0  0  0  0  0  0  0
   -1.1230    0.3042   -0.2977 C   0  0  0  0  0  0  0  0  0  0  0  0
   -0.0177    0.8510   -0.9041 C   0  0  0  0  0  0  0  0  0  0  0  0
    1.0496    0.2240   -0.3203 C   0  0  0  0  0  0  0  0  0  0  0  0
    2.4753    0.4404   -0.6076 C   0  0  0  0  0  0  0  0  0  0  0  0
    3.5135   -0.3201    0.1125 C   0  0  0  0  0  0  0  0  0  0  0  0
    2.8409    1.2977   -1.4929 N   0  0  0  0  0  0  0  0  0  0  0  0
    4.2088    1.4572   -1.7198 N   0  0  0  0  0  0  0  0  0  0  0  0
    4.7297    2.5073   -2.5281 C   0  0  0  0  0  0  0  0  0  0  0  0
    6.1277    2.6772   -2.7650 N   0  0  0  0  0  0  0  0  0  0  0  0
    3.8810    3.2948   -3.0341 O   0  0  0  0  0  0  0  0  0  0  0  0
    0.5892   -0.6131    0.5492 O   0  0  0  0  0  0  0  0  0  0  0  0
  1  2  1  0
  2  3  1  0
  3  4  2  0
  3  5  1  0
  5  6  1  0
  6  7  1  0
  7  8  2  0
  8  9  1  0
  9 10  1  0
 10 11  2  0
 11 12  1  0
 12 13  2  0
 13 14  1  0
 14 15  1  0
 14 16  2  0
 16 17  1  0
 17 18  1  0
 18 19  1  0
 18 20  2  0
 13 21  1  0
  9  5  2  0
 21 10  1  0
M  END
>  <zinc_id>  (218) 
ZINC000013468996

>  <ortholog_name>  (218) 
DRTS_PLAFK

>  <gene_name>  (218) 
DRTS_PLAFK

>  <affinity>  (218) 
5.38

>  <chembldocid>  (218) 
17071

>  <title>  (218) 
None

>  <reference.pubmed_id>  (218) 
12825927

>  <reference.doi>  (218) 
None

>  <reference.chembl_id>  (218) 
CHEMBL1145823

>  <reference.journal>  (218) 
J. Med. Chem.

>  <reference.year>  (218) 
2003

$$$$

     RDKit          3D

 21 22  0  0  0  0  0  0  0  0999 V2000
   -4.6044    0.9758   -0.8106 C   0  0  0  0  0  0  0  0  0  0  0  0
   -3.6711    0.2220   -0.0922 O   0  0  0  0  0  0  0  0  0  0  0  0
   -3.9104   -0.6969    0.8497 C   0  0  0  0  0  0  0  0  0  0  0  0
   -5.1354   -0.9267    1.1411 O   0  0  0  0  0  0  0  0  0  0  0  0
   -2.9064   -1.4719    1.5861 C   0  0  0  0  0  0  0  0  0  0  0  0
   -3.2299   -2.6658    2.8103 S   0  0  0  0  0  0  0  0  0  0  0  0
   -1.6440   -3.1136    3.1876 C   0  0  0  0  0  0  0  0  0  0  0  0
   -0.9147   -2.3423    2.3718 C   0  0  0  0  0  0  0  0  0  0  0  0
   -1.5414   -1.4817    1.5306 C   0  0  0  0  0  0  0  0  0  0  0  0
   -0.7172   -0.6193    0.6181 C   0  0  0  0  0  0  0  0  0  0  0  0
   -1.1230    0.3042   -0.2977 C   0  0  0  0  0  0  0  0  0  0  0  0
   -0.0177    0.8510   -0.9041 C   0  0  0  0  0  0  0  0  0  0  0  0
    1.0496    0.2240   -0.3203 C   0  0  0  0  0  0  0  0  0  0  0  0
    2.4753    0.4404   -0.6076 C   0  0  0  0  0  0  0  0  0  0  0  0
    3.5135   -0.3201    0.1125 C   0  0  0  0  0  0  0  0  0  0  0  0
    2.8409    1.2977   -1.4929 N   0  0  0  0  0  0  0  0  0  0  0  0
    4.2088    1.4572   -1.7198 N   0  0  0  0  0  0  0  0  0  0  0  0
    4.7297    2.5073   -2.5281 C   0  0  0  0  0  0  0  0  0  0  0  0
    6.1277    2.6772   -2.7650 N   0  0  0  0  0  0  0  0  0  0  0  0
    3.8810    3.2948   -3.0341 O   0  0  0  0  0  0  0  0  0  0  0  0
    0.5892   -0.6131    0.5492 O   0  0  0  0  0  0  0  0  0  0  0  0
  1  2  1  0
  2  3  1  0
  3  4  2  0
  3  5  1  0
  5  6  1  0
  6  7  1  0
  7  8  2  0
  8  9  1  0
  9 10  1  0
 10 11  2  0
 11 12  1  0
 12 13  2  0
 13 14  1  0
 14 15  1  0
 14 16  2  0
 16 17  1  0
 17 18  1  0
 18 19  1  0
 18 20  2  0
 13 21  1  0
  9  5  2  0
 21 10  1  0
M  END
>  <zinc_id>  (219) 
ZINC000013468996

>  <ortholog_name>  (219) 
DRTS_PLAFK

>  <gene_name>  (219) 
DRTS_PLAFK

>  <affinity>  (219) 
5.12

>  <chembldocid>  (219) 
17071

>  <title>  (219) 
None

>  <reference.pubmed_id>  (219) 
12825927

>  <reference.doi>  (219) 
None

>  <reference.chembl_id>  (219) 
CHEMBL1145823

>  <reference.journal>  (219) 
J. Med. Chem.

>  <reference.year>  (219) 
2003

$$$$

     RDKit          3D

 21 22  0  0  0  0  0  0  0  0999 V2000
   -4.6044    0.9758   -0.8106 C   0  0  0  0  0  0  0  0  0  0  0  0
   -3.6711    0.2220   -0.0922 O   0  0  0  0  0  0  0  0  0  0  0  0
   -3.9104   -0.6969    0.8497 C   0  0  0  0  0  0  0  0  0  0  0  0
   -5.1354   -0.9267    1.1411 O   0  0  0  0  0  0  0  0  0  0  0  0
   -2.9064   -1.4719    1.5861 C   0  0  0  0  0  0  0  0  0  0  0  0
   -3.2299   -2.6658    2.8103 S   0  0  0  0  0  0  0  0  0  0  0  0
   -1.6440   -3.1136    3.1876 C   0  0  0  0  0  0  0  0  0  0  0  0
   -0.9147   -2.3423    2.3718 C   0  0  0  0  0  0  0  0  0  0  0  0
   -1.5414   -1.4817    1.5306 C   0  0  0  0  0  0  0  0  0  0  0  0
   -0.7172   -0.6193    0.6181 C   0  0  0  0  0  0  0  0  0  0  0  0
   -1.1230    0.3042   -0.2977 C   0  0  0  0  0  0  0  0  0  0  0  0
   -0.0177    0.8510   -0.9041 C   0  0  0  0  0  0  0  0  0  0  0  0
    1.0496    0.2240   -0.3203 C   0  0  0  0  0  0  0  0  0  0  0  0
    2.4753    0.4404   -0.6076 C   0  0  0  0  0  0  0  0  0  0  0  0
    3.5135   -0.3201    0.1125 C   0  0  0  0  0  0  0  0  0  0  0  0
    2.8409    1.2977   -1.4929 N   0  0  0  0  0  0  0  0  0  0  0  0
    4.2088    1.4572   -1.7198 N   0  0  0  0  0  0  0  0  0  0  0  0
    4.7297    2.5073   -2.5281 C   0  0  0  0  0  0  0  0  0  0  0  0
    6.1277    2.6772   -2.7650 N   0  0  0  0  0  0  0  0  0  0  0  0
    3.8810    3.2948   -3.0341 O   0  0  0  0  0  0  0  0  0  0  0  0
    0.5892   -0.6131    0.5492 O   0  0  0  0  0  0  0  0  0  0  0  0
  1  2  1  0
  2  3  1  0
  3  4  2  0
  3  5  1  0
  5  6  1  0
  6  7  1  0
  7  8  2  0
  8  9  1  0
  9 10  1  0
 10 11  2  0
 11 12  1  0
 12 13  2  0
 13 14  1  0
 14 15  1  0
 14 16  2  0
 16 17  1  0
 17 18  1  0
 18 19  1  0
 18 20  2  0
 13 21  1  0
  9  5  2  0
 21 10  1  0
M  END
>  <zinc_id>  (220) 
ZINC000013468996

>  <ortholog_name>  (220) 
DRTS_PLAFK

>  <gene_name>  (220) 
DRTS_PLAFK

>  <affinity>  (220) 
5.01

>  <chembldocid>  (220) 
17071

>  <title>  (220) 
None

>  <reference.pubmed_id>  (220) 
12825927

>  <reference.doi>  (220) 
None

>  <reference.chembl_id>  (220) 
CHEMBL1145823

>  <reference.journal>  (220) 
J. Med. Chem.

>  <reference.year>  (220) 
2003

$$$$

     RDKit          3D

 22 23  0  0  0  0  0  0  0  0999 V2000
    3.5836    0.9945   -0.1740 C   0  0  0  0  0  0  0  0  0  0  0  0
    2.9519   -0.1945    0.4730 C   0  0  0  0  0  0  0  0  0  0  0  0
    3.7587   -1.0425    1.0149 N   0  0  0  0  0  0  0  0  0  0  0  0
    5.1371   -0.8255    0.9777 N   0  0  0  0  0  0  0  0  0  0  0  0
    5.8306   -0.8096   -0.1046 C   0  0  0  0  0  0  0  0  0  0  0  0
    5.1509   -1.0256   -1.3285 N   0  0  0  0  0  0  0  0  0  0  0  0
    7.6053   -0.5198   -0.0344 S   0  0  0  0  0  0  0  0  0  0  0  0
    1.5024   -0.3745    0.4843 C   0  0  0  0  0  0  0  0  0  0  0  0
    0.8689   -1.4485    1.0647 C   0  0  0  0  0  0  0  0  0  0  0  0
   -0.5036   -1.5935    1.0607 C   0  0  0  0  0  0  0  0  0  0  0  0
   -1.2747   -0.6314    0.4551 C   0  0  0  0  0  0  0  0  0  0  0  0
   -2.6709   -0.7571    0.4384 O   0  0  0  0  0  0  0  0  0  0  0  0
   -3.4451    0.2162   -0.1738 C   0  0  0  0  0  0  0  0  0  0  0  0
   -3.9108    1.3036    0.5174 C   0  0  0  0  0  0  0  0  0  0  0  0
   -3.4900    1.4242    2.2210 Cl  0  0  0  0  0  0  0  0  0  0  0  0
   -4.6772    2.2637   -0.0956 C   0  0  0  0  0  0  0  0  0  0  0  0
   -4.9624    2.1164   -1.3889 N   0  0  0  0  0  0  0  0  0  0  0  0
   -4.5303    1.0647   -2.1204 C   0  0  0  0  0  0  0  0  0  0  0  0
   -3.7631    0.0927   -1.5296 C   0  0  0  0  0  0  0  0  0  0  0  0
   -3.1882   -1.2780   -2.4426 Cl  0  0  0  0  0  0  0  0  0  0  0  0
   -0.6846    0.4468   -0.1305 C   0  0  0  0  0  0  0  0  0  0  0  0
    0.7115    0.5777   -0.1168 C   0  0  0  0  0  0  0  0  0  0  0  0
  1  2  1  0
  2  3  2  0
  3  4  1  0
  4  5  2  0
  5  6  1  0
  5  7  1  0
  2  8  1  0
  8  9  2  0
  9 10  1  0
 10 11  2  0
 11 12  1  0
 12 13  1  0
 13 14  2  0
 14 15  1  0
 14 16  1  0
 16 17  2  0
 17 18  1  0
 18 19  2  0
 19 20  1  0
 11 21  1  0
 21 22  2  0
 22  8  1  0
 19 13  1  0
M  END
>  <zinc_id>  (221) 
ZINC000013469871

>  <ortholog_name>  (221) 
DRTS_PLAFK

>  <gene_name>  (221) 
DRTS_PLAFK

>  <affinity>  (221) 
6.00

>  <chembldocid>  (221) 
17071

>  <title>  (221) 
None

>  <reference.pubmed_id>  (221) 
12825927

>  <reference.doi>  (221) 
None

>  <reference.chembl_id>  (221) 
CHEMBL1145823

>  <reference.journal>  (221) 
J. Med. Chem.

>  <reference.year>  (221) 
2003

$$$$

     RDKit          3D

 22 23  0  0  0  0  0  0  0  0999 V2000
    3.5836    0.9945   -0.1740 C   0  0  0  0  0  0  0  0  0  0  0  0
    2.9519   -0.1945    0.4730 C   0  0  0  0  0  0  0  0  0  0  0  0
    3.7587   -1.0425    1.0149 N   0  0  0  0  0  0  0  0  0  0  0  0
    5.1371   -0.8255    0.9777 N   0  0  0  0  0  0  0  0  0  0  0  0
    5.8306   -0.8096   -0.1046 C   0  0  0  0  0  0  0  0  0  0  0  0
    5.1509   -1.0256   -1.3285 N   0  0  0  0  0  0  0  0  0  0  0  0
    7.6053   -0.5198   -0.0344 S   0  0  0  0  0  0  0  0  0  0  0  0
    1.5024   -0.3745    0.4843 C   0  0  0  0  0  0  0  0  0  0  0  0
    0.8689   -1.4485    1.0647 C   0  0  0  0  0  0  0  0  0  0  0  0
   -0.5036   -1.5935    1.0607 C   0  0  0  0  0  0  0  0  0  0  0  0
   -1.2747   -0.6314    0.4551 C   0  0  0  0  0  0  0  0  0  0  0  0
   -2.6709   -0.7571    0.4384 O   0  0  0  0  0  0  0  0  0  0  0  0
   -3.4451    0.2162   -0.1738 C   0  0  0  0  0  0  0  0  0  0  0  0
   -3.9108    1.3036    0.5174 C   0  0  0  0  0  0  0  0  0  0  0  0
   -3.4900    1.4242    2.2210 Cl  0  0  0  0  0  0  0  0  0  0  0  0
   -4.6772    2.2637   -0.0956 C   0  0  0  0  0  0  0  0  0  0  0  0
   -4.9624    2.1164   -1.3889 N   0  0  0  0  0  0  0  0  0  0  0  0
   -4.5303    1.0647   -2.1204 C   0  0  0  0  0  0  0  0  0  0  0  0
   -3.7631    0.0927   -1.5296 C   0  0  0  0  0  0  0  0  0  0  0  0
   -3.1882   -1.2780   -2.4426 Cl  0  0  0  0  0  0  0  0  0  0  0  0
   -0.6846    0.4468   -0.1305 C   0  0  0  0  0  0  0  0  0  0  0  0
    0.7115    0.5777   -0.1168 C   0  0  0  0  0  0  0  0  0  0  0  0
  1  2  1  0
  2  3  2  0
  3  4  1  0
  4  5  2  0
  5  6  1  0
  5  7  1  0
  2  8  1  0
  8  9  2  0
  9 10  1  0
 10 11  2  0
 11 12  1  0
 12 13  1  0
 13 14  2  0
 14 15  1  0
 14 16  1  0
 16 17  2  0
 17 18  1  0
 18 19  2  0
 19 20  1  0
 11 21  1  0
 21 22  2  0
 22  8  1  0
 19 13  1  0
M  END
>  <zinc_id>  (222) 
ZINC000013469871

>  <ortholog_name>  (222) 
DRTS_PLAFK

>  <gene_name>  (222) 
DRTS_PLAFK

>  <affinity>  (222) 
5.85

>  <chembldocid>  (222) 
21047

>  <title>  (222) 
None

>  <reference.pubmed_id>  (222) 
15293997

>  <reference.doi>  (222) 
None

>  <reference.chembl_id>  (222) 
CHEMBL1138679

>  <reference.journal>  (222) 
J. Med. Chem.

>  <reference.year>  (222) 
2004

$$$$

     RDKit          3D

 22 23  0  0  0  0  0  0  0  0999 V2000
    3.5836    0.9945   -0.1740 C   0  0  0  0  0  0  0  0  0  0  0  0
    2.9519   -0.1945    0.4730 C   0  0  0  0  0  0  0  0  0  0  0  0
    3.7587   -1.0425    1.0149 N   0  0  0  0  0  0  0  0  0  0  0  0
    5.1371   -0.8255    0.9777 N   0  0  0  0  0  0  0  0  0  0  0  0
    5.8306   -0.8096   -0.1046 C   0  0  0  0  0  0  0  0  0  0  0  0
    5.1509   -1.0256   -1.3285 N   0  0  0  0  0  0  0  0  0  0  0  0
    7.6053   -0.5198   -0.0344 S   0  0  0  0  0  0  0  0  0  0  0  0
    1.5024   -0.3745    0.4843 C   0  0  0  0  0  0  0  0  0  0  0  0
    0.8689   -1.4485    1.0647 C   0  0  0  0  0  0  0  0  0  0  0  0
   -0.5036   -1.5935    1.0607 C   0  0  0  0  0  0  0  0  0  0  0  0
   -1.2747   -0.6314    0.4551 C   0  0  0  0  0  0  0  0  0  0  0  0
   -2.6709   -0.7571    0.4384 O   0  0  0  0  0  0  0  0  0  0  0  0
   -3.4451    0.2162   -0.1738 C   0  0  0  0  0  0  0  0  0  0  0  0
   -3.9108    1.3036    0.5174 C   0  0  0  0  0  0  0  0  0  0  0  0
   -3.4900    1.4242    2.2210 Cl  0  0  0  0  0  0  0  0  0  0  0  0
   -4.6772    2.2637   -0.0956 C   0  0  0  0  0  0  0  0  0  0  0  0
   -4.9624    2.1164   -1.3889 N   0  0  0  0  0  0  0  0  0  0  0  0
   -4.5303    1.0647   -2.1204 C   0  0  0  0  0  0  0  0  0  0  0  0
   -3.7631    0.0927   -1.5296 C   0  0  0  0  0  0  0  0  0  0  0  0
   -3.1882   -1.2780   -2.4426 Cl  0  0  0  0  0  0  0  0  0  0  0  0
   -0.6846    0.4468   -0.1305 C   0  0  0  0  0  0  0  0  0  0  0  0
    0.7115    0.5777   -0.1168 C   0  0  0  0  0  0  0  0  0  0  0  0
  1  2  1  0
  2  3  2  0
  3  4  1  0
  4  5  2  0
  5  6  1  0
  5  7  1  0
  2  8  1  0
  8  9  2  0
  9 10  1  0
 10 11  2  0
 11 12  1  0
 12 13  1  0
 13 14  2  0
 14 15  1  0
 14 16  1  0
 16 17  2  0
 17 18  1  0
 18 19  2  0
 19 20  1  0
 11 21  1  0
 21 22  2  0
 22  8  1  0
 19 13  1  0
M  END
>  <zinc_id>  (223) 
ZINC000013469871

>  <ortholog_name>  (223) 
DRTS_PLAFK

>  <gene_name>  (223) 
DRTS_PLAFK

>  <affinity>  (223) 
5.82

>  <chembldocid>  (223) 
17071

>  <title>  (223) 
None

>  <reference.pubmed_id>  (223) 
12825927

>  <reference.doi>  (223) 
None

>  <reference.chembl_id>  (223) 
CHEMBL1145823

>  <reference.journal>  (223) 
J. Med. Chem.

>  <reference.year>  (223) 
2003

$$$$

     RDKit          3D

 22 23  0  0  0  0  0  0  0  0999 V2000
    3.5836    0.9945   -0.1740 C   0  0  0  0  0  0  0  0  0  0  0  0
    2.9519   -0.1945    0.4730 C   0  0  0  0  0  0  0  0  0  0  0  0
    3.7587   -1.0425    1.0149 N   0  0  0  0  0  0  0  0  0  0  0  0
    5.1371   -0.8255    0.9777 N   0  0  0  0  0  0  0  0  0  0  0  0
    5.8306   -0.8096   -0.1046 C   0  0  0  0  0  0  0  0  0  0  0  0
    5.1509   -1.0256   -1.3285 N   0  0  0  0  0  0  0  0  0  0  0  0
    7.6053   -0.5198   -0.0344 S   0  0  0  0  0  0  0  0  0  0  0  0
    1.5024   -0.3745    0.4843 C   0  0  0  0  0  0  0  0  0  0  0  0
    0.8689   -1.4485    1.0647 C   0  0  0  0  0  0  0  0  0  0  0  0
   -0.5036   -1.5935    1.0607 C   0  0  0  0  0  0  0  0  0  0  0  0
   -1.2747   -0.6314    0.4551 C   0  0  0  0  0  0  0  0  0  0  0  0
   -2.6709   -0.7571    0.4384 O   0  0  0  0  0  0  0  0  0  0  0  0
   -3.4451    0.2162   -0.1738 C   0  0  0  0  0  0  0  0  0  0  0  0
   -3.9108    1.3036    0.5174 C   0  0  0  0  0  0  0  0  0  0  0  0
   -3.4900    1.4242    2.2210 Cl  0  0  0  0  0  0  0  0  0  0  0  0
   -4.6772    2.2637   -0.0956 C   0  0  0  0  0  0  0  0  0  0  0  0
   -4.9624    2.1164   -1.3889 N   0  0  0  0  0  0  0  0  0  0  0  0
   -4.5303    1.0647   -2.1204 C   0  0  0  0  0  0  0  0  0  0  0  0
   -3.7631    0.0927   -1.5296 C   0  0  0  0  0  0  0  0  0  0  0  0
   -3.1882   -1.2780   -2.4426 Cl  0  0  0  0  0  0  0  0  0  0  0  0
   -0.6846    0.4468   -0.1305 C   0  0  0  0  0  0  0  0  0  0  0  0
    0.7115    0.5777   -0.1168 C   0  0  0  0  0  0  0  0  0  0  0  0
  1  2  1  0
  2  3  2  0
  3  4  1  0
  4  5  2  0
  5  6  1  0
  5  7  1  0
  2  8  1  0
  8  9  2  0
  9 10  1  0
 10 11  2  0
 11 12  1  0
 12 13  1  0
 13 14  2  0
 14 15  1  0
 14 16  1  0
 16 17  2  0
 17 18  1  0
 18 19  2  0
 19 20  1  0
 11 21  1  0
 21 22  2  0
 22  8  1  0
 19 13  1  0
M  END
>  <zinc_id>  (224) 
ZINC000013469871

>  <ortholog_name>  (224) 
DRTS_PLAFK

>  <gene_name>  (224) 
DRTS_PLAFK

>  <affinity>  (224) 
5.68

>  <chembldocid>  (224) 
17071

>  <title>  (224) 
None

>  <reference.pubmed_id>  (224) 
12825927

>  <reference.doi>  (224) 
None

>  <reference.chembl_id>  (224) 
CHEMBL1145823

>  <reference.journal>  (224) 
J. Med. Chem.

>  <reference.year>  (224) 
2003

$$$$

     RDKit          3D

 22 23  0  0  0  0  0  0  0  0999 V2000
    3.5836    0.9945   -0.1740 C   0  0  0  0  0  0  0  0  0  0  0  0
    2.9519   -0.1945    0.4730 C   0  0  0  0  0  0  0  0  0  0  0  0
    3.7587   -1.0425    1.0149 N   0  0  0  0  0  0  0  0  0  0  0  0
    5.1371   -0.8255    0.9777 N   0  0  0  0  0  0  0  0  0  0  0  0
    5.8306   -0.8096   -0.1046 C   0  0  0  0  0  0  0  0  0  0  0  0
    5.1509   -1.0256   -1.3285 N   0  0  0  0  0  0  0  0  0  0  0  0
    7.6053   -0.5198   -0.0344 S   0  0  0  0  0  0  0  0  0  0  0  0
    1.5024   -0.3745    0.4843 C   0  0  0  0  0  0  0  0  0  0  0  0
    0.8689   -1.4485    1.0647 C   0  0  0  0  0  0  0  0  0  0  0  0
   -0.5036   -1.5935    1.0607 C   0  0  0  0  0  0  0  0  0  0  0  0
   -1.2747   -0.6314    0.4551 C   0  0  0  0  0  0  0  0  0  0  0  0
   -2.6709   -0.7571    0.4384 O   0  0  0  0  0  0  0  0  0  0  0  0
   -3.4451    0.2162   -0.1738 C   0  0  0  0  0  0  0  0  0  0  0  0
   -3.9108    1.3036    0.5174 C   0  0  0  0  0  0  0  0  0  0  0  0
   -3.4900    1.4242    2.2210 Cl  0  0  0  0  0  0  0  0  0  0  0  0
   -4.6772    2.2637   -0.0956 C   0  0  0  0  0  0  0  0  0  0  0  0
   -4.9624    2.1164   -1.3889 N   0  0  0  0  0  0  0  0  0  0  0  0
   -4.5303    1.0647   -2.1204 C   0  0  0  0  0  0  0  0  0  0  0  0
   -3.7631    0.0927   -1.5296 C   0  0  0  0  0  0  0  0  0  0  0  0
   -3.1882   -1.2780   -2.4426 Cl  0  0  0  0  0  0  0  0  0  0  0  0
   -0.6846    0.4468   -0.1305 C   0  0  0  0  0  0  0  0  0  0  0  0
    0.7115    0.5777   -0.1168 C   0  0  0  0  0  0  0  0  0  0  0  0
  1  2  1  0
  2  3  2  0
  3  4  1  0
  4  5  2  0
  5  6  1  0
  5  7  1  0
  2  8  1  0
  8  9  2  0
  9 10  1  0
 10 11  2  0
 11 12  1  0
 12 13  1  0
 13 14  2  0
 14 15  1  0
 14 16  1  0
 16 17  2  0
 17 18  1  0
 18 19  2  0
 19 20  1  0
 11 21  1  0
 21 22  2  0
 22  8  1  0
 19 13  1  0
M  END
>  <zinc_id>  (225) 
ZINC000013469871

>  <ortholog_name>  (225) 
DRTS_PLAFK

>  <gene_name>  (225) 
DRTS_PLAFK

>  <affinity>  (225) 
6.22

>  <chembldocid>  (225) 
17071

>  <title>  (225) 
None

>  <reference.pubmed_id>  (225) 
12825927

>  <reference.doi>  (225) 
None

>  <reference.chembl_id>  (225) 
CHEMBL1145823

>  <reference.journal>  (225) 
J. Med. Chem.

>  <reference.year>  (225) 
2003

$$$$

     RDKit          3D

 22 23  0  0  0  0  0  0  0  0999 V2000
    3.5836    0.9945   -0.1740 C   0  0  0  0  0  0  0  0  0  0  0  0
    2.9519   -0.1945    0.4730 C   0  0  0  0  0  0  0  0  0  0  0  0
    3.7587   -1.0425    1.0149 N   0  0  0  0  0  0  0  0  0  0  0  0
    5.1371   -0.8255    0.9777 N   0  0  0  0  0  0  0  0  0  0  0  0
    5.8306   -0.8096   -0.1046 C   0  0  0  0  0  0  0  0  0  0  0  0
    5.1509   -1.0256   -1.3285 N   0  0  0  0  0  0  0  0  0  0  0  0
    7.6053   -0.5198   -0.0344 S   0  0  0  0  0  0  0  0  0  0  0  0
    1.5024   -0.3745    0.4843 C   0  0  0  0  0  0  0  0  0  0  0  0
    0.8689   -1.4485    1.0647 C   0  0  0  0  0  0  0  0  0  0  0  0
   -0.5036   -1.5935    1.0607 C   0  0  0  0  0  0  0  0  0  0  0  0
   -1.2747   -0.6314    0.4551 C   0  0  0  0  0  0  0  0  0  0  0  0
   -2.6709   -0.7571    0.4384 O   0  0  0  0  0  0  0  0  0  0  0  0
   -3.4451    0.2162   -0.1738 C   0  0  0  0  0  0  0  0  0  0  0  0
   -3.9108    1.3036    0.5174 C   0  0  0  0  0  0  0  0  0  0  0  0
   -3.4900    1.4242    2.2210 Cl  0  0  0  0  0  0  0  0  0  0  0  0
   -4.6772    2.2637   -0.0956 C   0  0  0  0  0  0  0  0  0  0  0  0
   -4.9624    2.1164   -1.3889 N   0  0  0  0  0  0  0  0  0  0  0  0
   -4.5303    1.0647   -2.1204 C   0  0  0  0  0  0  0  0  0  0  0  0
   -3.7631    0.0927   -1.5296 C   0  0  0  0  0  0  0  0  0  0  0  0
   -3.1882   -1.2780   -2.4426 Cl  0  0  0  0  0  0  0  0  0  0  0  0
   -0.6846    0.4468   -0.1305 C   0  0  0  0  0  0  0  0  0  0  0  0
    0.7115    0.5777   -0.1168 C   0  0  0  0  0  0  0  0  0  0  0  0
  1  2  1  0
  2  3  2  0
  3  4  1  0
  4  5  2  0
  5  6  1  0
  5  7  1  0
  2  8  1  0
  8  9  2  0
  9 10  1  0
 10 11  2  0
 11 12  1  0
 12 13  1  0
 13 14  2  0
 14 15  1  0
 14 16  1  0
 16 17  2  0
 17 18  1  0
 18 19  2  0
 19 20  1  0
 11 21  1  0
 21 22  2  0
 22  8  1  0
 19 13  1  0
M  END
>  <zinc_id>  (226) 
ZINC000013469871

>  <ortholog_name>  (226) 
DRTS_PLAFK

>  <gene_name>  (226) 
DRTS_PLAFK

>  <affinity>  (226) 
6.15

>  <chembldocid>  (226) 
17071

>  <title>  (226) 
None

>  <reference.pubmed_id>  (226) 
12825927

>  <reference.doi>  (226) 
None

>  <reference.chembl_id>  (226) 
CHEMBL1145823

>  <reference.journal>  (226) 
J. Med. Chem.

>  <reference.year>  (226) 
2003

$$$$

     RDKit          3D

 22 23  0  0  0  0  0  0  0  0999 V2000
    3.5836    0.9945   -0.1740 C   0  0  0  0  0  0  0  0  0  0  0  0
    2.9519   -0.1945    0.4730 C   0  0  0  0  0  0  0  0  0  0  0  0
    3.7587   -1.0425    1.0149 N   0  0  0  0  0  0  0  0  0  0  0  0
    5.1371   -0.8255    0.9777 N   0  0  0  0  0  0  0  0  0  0  0  0
    5.8306   -0.8096   -0.1046 C   0  0  0  0  0  0  0  0  0  0  0  0
    5.1509   -1.0256   -1.3285 N   0  0  0  0  0  0  0  0  0  0  0  0
    7.6053   -0.5198   -0.0344 S   0  0  0  0  0  0  0  0  0  0  0  0
    1.5024   -0.3745    0.4843 C   0  0  0  0  0  0  0  0  0  0  0  0
    0.8689   -1.4485    1.0647 C   0  0  0  0  0  0  0  0  0  0  0  0
   -0.5036   -1.5935    1.0607 C   0  0  0  0  0  0  0  0  0  0  0  0
   -1.2747   -0.6314    0.4551 C   0  0  0  0  0  0  0  0  0  0  0  0
   -2.6709   -0.7571    0.4384 O   0  0  0  0  0  0  0  0  0  0  0  0
   -3.4451    0.2162   -0.1738 C   0  0  0  0  0  0  0  0  0  0  0  0
   -3.9108    1.3036    0.5174 C   0  0  0  0  0  0  0  0  0  0  0  0
   -3.4900    1.4242    2.2210 Cl  0  0  0  0  0  0  0  0  0  0  0  0
   -4.6772    2.2637   -0.0956 C   0  0  0  0  0  0  0  0  0  0  0  0
   -4.9624    2.1164   -1.3889 N   0  0  0  0  0  0  0  0  0  0  0  0
   -4.5303    1.0647   -2.1204 C   0  0  0  0  0  0  0  0  0  0  0  0
   -3.7631    0.0927   -1.5296 C   0  0  0  0  0  0  0  0  0  0  0  0
   -3.1882   -1.2780   -2.4426 Cl  0  0  0  0  0  0  0  0  0  0  0  0
   -0.6846    0.4468   -0.1305 C   0  0  0  0  0  0  0  0  0  0  0  0
    0.7115    0.5777   -0.1168 C   0  0  0  0  0  0  0  0  0  0  0  0
  1  2  1  0
  2  3  2  0
  3  4  1  0
  4  5  2  0
  5  6  1  0
  5  7  1  0
  2  8  1  0
  8  9  2  0
  9 10  1  0
 10 11  2  0
 11 12  1  0
 12 13  1  0
 13 14  2  0
 14 15  1  0
 14 16  1  0
 16 17  2  0
 17 18  1  0
 18 19  2  0
 19 20  1  0
 11 21  1  0
 21 22  2  0
 22  8  1  0
 19 13  1  0
M  END
>  <zinc_id>  (227) 
ZINC000013469871

>  <ortholog_name>  (227) 
DRTS_PLAFK

>  <gene_name>  (227) 
DRTS_PLAFK

>  <affinity>  (227) 
6.05

>  <chembldocid>  (227) 
17071

>  <title>  (227) 
None

>  <reference.pubmed_id>  (227) 
12825927

>  <reference.doi>  (227) 
None

>  <reference.chembl_id>  (227) 
CHEMBL1145823

>  <reference.journal>  (227) 
J. Med. Chem.

>  <reference.year>  (227) 
2003

$$$$

     RDKit          3D

 17 18  0  0  0  0  0  0  0  0999 V2000
    0.3775    2.8216   -0.3903 C   0  0  0  0  0  0  0  0  0  0  0  0
    0.8106    2.0467    0.8656 C   0  0  0  0  0  0  0  0  0  0  0  0
    1.4438    0.7914    0.3759 C   0  0  0  0  0  0  0  0  0  0  0  0
    2.7890    0.6839    0.3804 N   0  0  0  0  0  0  0  0  0  0  0  0
    3.3911   -0.4526   -0.0714 C   0  0  0  0  0  0  0  0  0  0  0  0
    4.8019   -0.5913   -0.0738 N   0  0  0  0  0  0  0  0  0  0  0  0
    2.6261   -1.4630   -0.5206 N   0  0  0  0  0  0  0  0  0  0  0  0
    1.2695   -1.3708   -0.5316 C   0  0  0  0  0  0  0  0  0  0  0  0
    0.4326   -2.4300   -1.0051 N   0  0  0  0  0  0  0  0  0  0  0  0
    0.6224   -0.2367   -0.0824 C   0  0  0  0  0  0  0  0  0  0  0  0
   -0.8314   -0.0931   -0.0408 C   0  0  0  0  0  0  0  0  0  0  0  0
   -1.5232   -0.6168    1.0588 C   0  0  0  0  0  0  0  0  0  0  0  0
   -2.8758   -0.5341    1.2145 C   0  0  0  0  0  0  0  0  0  0  0  0
   -3.6418    0.1041    0.2369 C   0  0  0  0  0  0  0  0  0  0  0  0
   -5.1196    0.1908    0.4120 C   0  0  0  0  0  0  0  0  0  0  0  0
   -2.9747    0.6219   -0.8431 C   0  0  0  0  0  0  0  0  0  0  0  0
   -1.5979    0.5279   -0.9850 C   0  0  0  0  0  0  0  0  0  0  0  0
  1  2  1  0
  2  3  1  0
  3  4  2  0
  4  5  1  0
  5  6  1  0
  5  7  2  0
  7  8  1  0
  8  9  1  0
  8 10  2  0
 10 11  1  0
 11 12  2  0
 12 13  1  0
 13 14  2  0
 14 15  1  0
 14 16  1  0
 16 17  2  0
 10  3  1  0
 17 11  1  0
M  END
>  <zinc_id>  (228) 
ZINC000013472712

>  <ortholog_name>  (228) 
DRTS_PLAFK

>  <gene_name>  (228) 
DRTS_PLAFK

>  <affinity>  (228) 
9.40

>  <chembldocid>  (228) 
16871

>  <title>  (228) 
None

>  <reference.pubmed_id>  (228) 
11881993

>  <reference.doi>  (228) 
None

>  <reference.chembl_id>  (228) 
CHEMBL1135602

>  <reference.journal>  (228) 
J. Med. Chem.

>  <reference.year>  (228) 
2002

$$$$

     RDKit          3D

 17 18  0  0  0  0  0  0  0  0999 V2000
    0.3775    2.8216   -0.3903 C   0  0  0  0  0  0  0  0  0  0  0  0
    0.8106    2.0467    0.8656 C   0  0  0  0  0  0  0  0  0  0  0  0
    1.4438    0.7914    0.3759 C   0  0  0  0  0  0  0  0  0  0  0  0
    2.7890    0.6839    0.3804 N   0  0  0  0  0  0  0  0  0  0  0  0
    3.3911   -0.4526   -0.0714 C   0  0  0  0  0  0  0  0  0  0  0  0
    4.8019   -0.5913   -0.0738 N   0  0  0  0  0  0  0  0  0  0  0  0
    2.6261   -1.4630   -0.5206 N   0  0  0  0  0  0  0  0  0  0  0  0
    1.2695   -1.3708   -0.5316 C   0  0  0  0  0  0  0  0  0  0  0  0
    0.4326   -2.4300   -1.0051 N   0  0  0  0  0  0  0  0  0  0  0  0
    0.6224   -0.2367   -0.0824 C   0  0  0  0  0  0  0  0  0  0  0  0
   -0.8314   -0.0931   -0.0408 C   0  0  0  0  0  0  0  0  0  0  0  0
   -1.5232   -0.6168    1.0588 C   0  0  0  0  0  0  0  0  0  0  0  0
   -2.8758   -0.5341    1.2145 C   0  0  0  0  0  0  0  0  0  0  0  0
   -3.6418    0.1041    0.2369 C   0  0  0  0  0  0  0  0  0  0  0  0
   -5.1196    0.1908    0.4120 C   0  0  0  0  0  0  0  0  0  0  0  0
   -2.9747    0.6219   -0.8431 C   0  0  0  0  0  0  0  0  0  0  0  0
   -1.5979    0.5279   -0.9850 C   0  0  0  0  0  0  0  0  0  0  0  0
  1  2  1  0
  2  3  1  0
  3  4  2  0
  4  5  1  0
  5  6  1  0
  5  7  2  0
  7  8  1  0
  8  9  1  0
  8 10  2  0
 10 11  1  0
 11 12  2  0
 12 13  1  0
 13 14  2  0
 14 15  1  0
 14 16  1  0
 16 17  2  0
 10  3  1  0
 17 11  1  0
M  END
>  <zinc_id>  (229) 
ZINC000013472712

>  <ortholog_name>  (229) 
DRTS_PLAFK

>  <gene_name>  (229) 
DRTS_PLAFK

>  <affinity>  (229) 
9.40

>  <chembldocid>  (229) 
17662

>  <title>  (229) 
None

>  <reference.pubmed_id>  (229) 
14736247

>  <reference.doi>  (229) 
None

>  <reference.chembl_id>  (229) 
CHEMBL1138835

>  <reference.journal>  (229) 
J. Med. Chem.

>  <reference.year>  (229) 
2004

$$$$

     RDKit          3D

 17 18  0  0  0  0  0  0  0  0999 V2000
    0.3775    2.8216   -0.3903 C   0  0  0  0  0  0  0  0  0  0  0  0
    0.8106    2.0467    0.8656 C   0  0  0  0  0  0  0  0  0  0  0  0
    1.4438    0.7914    0.3759 C   0  0  0  0  0  0  0  0  0  0  0  0
    2.7890    0.6839    0.3804 N   0  0  0  0  0  0  0  0  0  0  0  0
    3.3911   -0.4526   -0.0714 C   0  0  0  0  0  0  0  0  0  0  0  0
    4.8019   -0.5913   -0.0738 N   0  0  0  0  0  0  0  0  0  0  0  0
    2.6261   -1.4630   -0.5206 N   0  0  0  0  0  0  0  0  0  0  0  0
    1.2695   -1.3708   -0.5316 C   0  0  0  0  0  0  0  0  0  0  0  0
    0.4326   -2.4300   -1.0051 N   0  0  0  0  0  0  0  0  0  0  0  0
    0.6224   -0.2367   -0.0824 C   0  0  0  0  0  0  0  0  0  0  0  0
   -0.8314   -0.0931   -0.0408 C   0  0  0  0  0  0  0  0  0  0  0  0
   -1.5232   -0.6168    1.0588 C   0  0  0  0  0  0  0  0  0  0  0  0
   -2.8758   -0.5341    1.2145 C   0  0  0  0  0  0  0  0  0  0  0  0
   -3.6418    0.1041    0.2369 C   0  0  0  0  0  0  0  0  0  0  0  0
   -5.1196    0.1908    0.4120 C   0  0  0  0  0  0  0  0  0  0  0  0
   -2.9747    0.6219   -0.8431 C   0  0  0  0  0  0  0  0  0  0  0  0
   -1.5979    0.5279   -0.9850 C   0  0  0  0  0  0  0  0  0  0  0  0
  1  2  1  0
  2  3  1  0
  3  4  2  0
  4  5  1  0
  5  6  1  0
  5  7  2  0
  7  8  1  0
  8  9  1  0
  8 10  2  0
 10 11  1  0
 11 12  2  0
 12 13  1  0
 13 14  2  0
 14 15  1  0
 14 16  1  0
 16 17  2  0
 10  3  1  0
 17 11  1  0
M  END
>  <zinc_id>  (230) 
ZINC000013472712

>  <ortholog_name>  (230) 
DRTS_PLAFK

>  <gene_name>  (230) 
DRTS_PLAFK

>  <affinity>  (230) 
8.96

>  <chembldocid>  (230) 
21047

>  <title>  (230) 
None

>  <reference.pubmed_id>  (230) 
15293997

>  <reference.doi>  (230) 
None

>  <reference.chembl_id>  (230) 
CHEMBL1138679

>  <reference.journal>  (230) 
J. Med. Chem.

>  <reference.year>  (230) 
2004

$$$$

     RDKit          3D

 17 18  0  0  0  0  0  0  0  0999 V2000
    0.3775    2.8216   -0.3903 C   0  0  0  0  0  0  0  0  0  0  0  0
    0.8106    2.0467    0.8656 C   0  0  0  0  0  0  0  0  0  0  0  0
    1.4438    0.7914    0.3759 C   0  0  0  0  0  0  0  0  0  0  0  0
    2.7890    0.6839    0.3804 N   0  0  0  0  0  0  0  0  0  0  0  0
    3.3911   -0.4526   -0.0714 C   0  0  0  0  0  0  0  0  0  0  0  0
    4.8019   -0.5913   -0.0738 N   0  0  0  0  0  0  0  0  0  0  0  0
    2.6261   -1.4630   -0.5206 N   0  0  0  0  0  0  0  0  0  0  0  0
    1.2695   -1.3708   -0.5316 C   0  0  0  0  0  0  0  0  0  0  0  0
    0.4326   -2.4300   -1.0051 N   0  0  0  0  0  0  0  0  0  0  0  0
    0.6224   -0.2367   -0.0824 C   0  0  0  0  0  0  0  0  0  0  0  0
   -0.8314   -0.0931   -0.0408 C   0  0  0  0  0  0  0  0  0  0  0  0
   -1.5232   -0.6168    1.0588 C   0  0  0  0  0  0  0  0  0  0  0  0
   -2.8758   -0.5341    1.2145 C   0  0  0  0  0  0  0  0  0  0  0  0
   -3.6418    0.1041    0.2369 C   0  0  0  0  0  0  0  0  0  0  0  0
   -5.1196    0.1908    0.4120 C   0  0  0  0  0  0  0  0  0  0  0  0
   -2.9747    0.6219   -0.8431 C   0  0  0  0  0  0  0  0  0  0  0  0
   -1.5979    0.5279   -0.9850 C   0  0  0  0  0  0  0  0  0  0  0  0
  1  2  1  0
  2  3  1  0
  3  4  2  0
  4  5  1  0
  5  6  1  0
  5  7  2  0
  7  8  1  0
  8  9  1  0
  8 10  2  0
 10 11  1  0
 11 12  2  0
 12 13  1  0
 13 14  2  0
 14 15  1  0
 14 16  1  0
 16 17  2  0
 10  3  1  0
 17 11  1  0
M  END
>  <zinc_id>  (231) 
ZINC000013472712

>  <ortholog_name>  (231) 
DRTS_PLAFK

>  <gene_name>  (231) 
DRTS_PLAFK

>  <affinity>  (231) 
7.97

>  <chembldocid>  (231) 
16871

>  <title>  (231) 
None

>  <reference.pubmed_id>  (231) 
11881993

>  <reference.doi>  (231) 
None

>  <reference.chembl_id>  (231) 
CHEMBL1135602

>  <reference.journal>  (231) 
J. Med. Chem.

>  <reference.year>  (231) 
2002

$$$$

     RDKit          3D

 17 18  0  0  0  0  0  0  0  0999 V2000
    0.3775    2.8216   -0.3903 C   0  0  0  0  0  0  0  0  0  0  0  0
    0.8106    2.0467    0.8656 C   0  0  0  0  0  0  0  0  0  0  0  0
    1.4438    0.7914    0.3759 C   0  0  0  0  0  0  0  0  0  0  0  0
    2.7890    0.6839    0.3804 N   0  0  0  0  0  0  0  0  0  0  0  0
    3.3911   -0.4526   -0.0714 C   0  0  0  0  0  0  0  0  0  0  0  0
    4.8019   -0.5913   -0.0738 N   0  0  0  0  0  0  0  0  0  0  0  0
    2.6261   -1.4630   -0.5206 N   0  0  0  0  0  0  0  0  0  0  0  0
    1.2695   -1.3708   -0.5316 C   0  0  0  0  0  0  0  0  0  0  0  0
    0.4326   -2.4300   -1.0051 N   0  0  0  0  0  0  0  0  0  0  0  0
    0.6224   -0.2367   -0.0824 C   0  0  0  0  0  0  0  0  0  0  0  0
   -0.8314   -0.0931   -0.0408 C   0  0  0  0  0  0  0  0  0  0  0  0
   -1.5232   -0.6168    1.0588 C   0  0  0  0  0  0  0  0  0  0  0  0
   -2.8758   -0.5341    1.2145 C   0  0  0  0  0  0  0  0  0  0  0  0
   -3.6418    0.1041    0.2369 C   0  0  0  0  0  0  0  0  0  0  0  0
   -5.1196    0.1908    0.4120 C   0  0  0  0  0  0  0  0  0  0  0  0
   -2.9747    0.6219   -0.8431 C   0  0  0  0  0  0  0  0  0  0  0  0
   -1.5979    0.5279   -0.9850 C   0  0  0  0  0  0  0  0  0  0  0  0
  1  2  1  0
  2  3  1  0
  3  4  2  0
  4  5  1  0
  5  6  1  0
  5  7  2  0
  7  8  1  0
  8  9  1  0
  8 10  2  0
 10 11  1  0
 11 12  2  0
 12 13  1  0
 13 14  2  0
 14 15  1  0
 14 16  1  0
 16 17  2  0
 10  3  1  0
 17 11  1  0
M  END
>  <zinc_id>  (232) 
ZINC000013472712

>  <ortholog_name>  (232) 
DRTS_PLAFK

>  <gene_name>  (232) 
DRTS_PLAFK

>  <affinity>  (232) 
7.83

>  <chembldocid>  (232) 
16871

>  <title>  (232) 
None

>  <reference.pubmed_id>  (232) 
11881993

>  <reference.doi>  (232) 
None

>  <reference.chembl_id>  (232) 
CHEMBL1135602

>  <reference.journal>  (232) 
J. Med. Chem.

>  <reference.year>  (232) 
2002

$$$$

     RDKit          3D

 17 18  0  0  0  0  0  0  0  0999 V2000
    0.3775    2.8216   -0.3903 C   0  0  0  0  0  0  0  0  0  0  0  0
    0.8106    2.0467    0.8656 C   0  0  0  0  0  0  0  0  0  0  0  0
    1.4438    0.7914    0.3759 C   0  0  0  0  0  0  0  0  0  0  0  0
    2.7890    0.6839    0.3804 N   0  0  0  0  0  0  0  0  0  0  0  0
    3.3911   -0.4526   -0.0714 C   0  0  0  0  0  0  0  0  0  0  0  0
    4.8019   -0.5913   -0.0738 N   0  0  0  0  0  0  0  0  0  0  0  0
    2.6261   -1.4630   -0.5206 N   0  0  0  0  0  0  0  0  0  0  0  0
    1.2695   -1.3708   -0.5316 C   0  0  0  0  0  0  0  0  0  0  0  0
    0.4326   -2.4300   -1.0051 N   0  0  0  0  0  0  0  0  0  0  0  0
    0.6224   -0.2367   -0.0824 C   0  0  0  0  0  0  0  0  0  0  0  0
   -0.8314   -0.0931   -0.0408 C   0  0  0  0  0  0  0  0  0  0  0  0
   -1.5232   -0.6168    1.0588 C   0  0  0  0  0  0  0  0  0  0  0  0
   -2.8758   -0.5341    1.2145 C   0  0  0  0  0  0  0  0  0  0  0  0
   -3.6418    0.1041    0.2369 C   0  0  0  0  0  0  0  0  0  0  0  0
   -5.1196    0.1908    0.4120 C   0  0  0  0  0  0  0  0  0  0  0  0
   -2.9747    0.6219   -0.8431 C   0  0  0  0  0  0  0  0  0  0  0  0
   -1.5979    0.5279   -0.9850 C   0  0  0  0  0  0  0  0  0  0  0  0
  1  2  1  0
  2  3  1  0
  3  4  2  0
  4  5  1  0
  5  6  1  0
  5  7  2  0
  7  8  1  0
  8  9  1  0
  8 10  2  0
 10 11  1  0
 11 12  2  0
 12 13  1  0
 13 14  2  0
 14 15  1  0
 14 16  1  0
 16 17  2  0
 10  3  1  0
 17 11  1  0
M  END
>  <zinc_id>  (233) 
ZINC000013472712

>  <ortholog_name>  (233) 
DRTS_PLAFK

>  <gene_name>  (233) 
DRTS_PLAFK

>  <affinity>  (233) 
6.55

>  <chembldocid>  (233) 
17662

>  <title>  (233) 
None

>  <reference.pubmed_id>  (233) 
14736247

>  <reference.doi>  (233) 
None

>  <reference.chembl_id>  (233) 
CHEMBL1138835

>  <reference.journal>  (233) 
J. Med. Chem.

>  <reference.year>  (233) 
2004

$$$$

     RDKit          3D

 17 18  0  0  0  0  0  0  0  0999 V2000
    0.3775    2.8216   -0.3903 C   0  0  0  0  0  0  0  0  0  0  0  0
    0.8106    2.0467    0.8656 C   0  0  0  0  0  0  0  0  0  0  0  0
    1.4438    0.7914    0.3759 C   0  0  0  0  0  0  0  0  0  0  0  0
    2.7890    0.6839    0.3804 N   0  0  0  0  0  0  0  0  0  0  0  0
    3.3911   -0.4526   -0.0714 C   0  0  0  0  0  0  0  0  0  0  0  0
    4.8019   -0.5913   -0.0738 N   0  0  0  0  0  0  0  0  0  0  0  0
    2.6261   -1.4630   -0.5206 N   0  0  0  0  0  0  0  0  0  0  0  0
    1.2695   -1.3708   -0.5316 C   0  0  0  0  0  0  0  0  0  0  0  0
    0.4326   -2.4300   -1.0051 N   0  0  0  0  0  0  0  0  0  0  0  0
    0.6224   -0.2367   -0.0824 C   0  0  0  0  0  0  0  0  0  0  0  0
   -0.8314   -0.0931   -0.0408 C   0  0  0  0  0  0  0  0  0  0  0  0
   -1.5232   -0.6168    1.0588 C   0  0  0  0  0  0  0  0  0  0  0  0
   -2.8758   -0.5341    1.2145 C   0  0  0  0  0  0  0  0  0  0  0  0
   -3.6418    0.1041    0.2369 C   0  0  0  0  0  0  0  0  0  0  0  0
   -5.1196    0.1908    0.4120 C   0  0  0  0  0  0  0  0  0  0  0  0
   -2.9747    0.6219   -0.8431 C   0  0  0  0  0  0  0  0  0  0  0  0
   -1.5979    0.5279   -0.9850 C   0  0  0  0  0  0  0  0  0  0  0  0
  1  2  1  0
  2  3  1  0
  3  4  2  0
  4  5  1  0
  5  6  1  0
  5  7  2  0
  7  8  1  0
  8  9  1  0
  8 10  2  0
 10 11  1  0
 11 12  2  0
 12 13  1  0
 13 14  2  0
 14 15  1  0
 14 16  1  0
 16 17  2  0
 10  3  1  0
 17 11  1  0
M  END
>  <zinc_id>  (234) 
ZINC000013472712

>  <ortholog_name>  (234) 
DRTS_PLAFK

>  <gene_name>  (234) 
DRTS_PLAFK

>  <affinity>  (234) 
8.16

>  <chembldocid>  (234) 
17662

>  <title>  (234) 
None

>  <reference.pubmed_id>  (234) 
14736247

>  <reference.doi>  (234) 
None

>  <reference.chembl_id>  (234) 
CHEMBL1138835

>  <reference.journal>  (234) 
J. Med. Chem.

>  <reference.year>  (234) 
2004

$$$$

     RDKit          3D

 17 18  0  0  0  0  0  0  0  0999 V2000
    0.3775    2.8216   -0.3903 C   0  0  0  0  0  0  0  0  0  0  0  0
    0.8106    2.0467    0.8656 C   0  0  0  0  0  0  0  0  0  0  0  0
    1.4438    0.7914    0.3759 C   0  0  0  0  0  0  0  0  0  0  0  0
    2.7890    0.6839    0.3804 N   0  0  0  0  0  0  0  0  0  0  0  0
    3.3911   -0.4526   -0.0714 C   0  0  0  0  0  0  0  0  0  0  0  0
    4.8019   -0.5913   -0.0738 N   0  0  0  0  0  0  0  0  0  0  0  0
    2.6261   -1.4630   -0.5206 N   0  0  0  0  0  0  0  0  0  0  0  0
    1.2695   -1.3708   -0.5316 C   0  0  0  0  0  0  0  0  0  0  0  0
    0.4326   -2.4300   -1.0051 N   0  0  0  0  0  0  0  0  0  0  0  0
    0.6224   -0.2367   -0.0824 C   0  0  0  0  0  0  0  0  0  0  0  0
   -0.8314   -0.0931   -0.0408 C   0  0  0  0  0  0  0  0  0  0  0  0
   -1.5232   -0.6168    1.0588 C   0  0  0  0  0  0  0  0  0  0  0  0
   -2.8758   -0.5341    1.2145 C   0  0  0  0  0  0  0  0  0  0  0  0
   -3.6418    0.1041    0.2369 C   0  0  0  0  0  0  0  0  0  0  0  0
   -5.1196    0.1908    0.4120 C   0  0  0  0  0  0  0  0  0  0  0  0
   -2.9747    0.6219   -0.8431 C   0  0  0  0  0  0  0  0  0  0  0  0
   -1.5979    0.5279   -0.9850 C   0  0  0  0  0  0  0  0  0  0  0  0
  1  2  1  0
  2  3  1  0
  3  4  2  0
  4  5  1  0
  5  6  1  0
  5  7  2  0
  7  8  1  0
  8  9  1  0
  8 10  2  0
 10 11  1  0
 11 12  2  0
 12 13  1  0
 13 14  2  0
 14 15  1  0
 14 16  1  0
 16 17  2  0
 10  3  1  0
 17 11  1  0
M  END
>  <zinc_id>  (235) 
ZINC000013472712

>  <ortholog_name>  (235) 
DRTS_PLAFK

>  <gene_name>  (235) 
DRTS_PLAFK

>  <affinity>  (235) 
7.06

>  <chembldocid>  (235) 
17662

>  <title>  (235) 
None

>  <reference.pubmed_id>  (235) 
14736247

>  <reference.doi>  (235) 
None

>  <reference.chembl_id>  (235) 
CHEMBL1138835

>  <reference.journal>  (235) 
J. Med. Chem.

>  <reference.year>  (235) 
2004

$$$$

     RDKit          3D

 20 21  0  0  0  0  0  0  0  0999 V2000
    1.0908    2.6423   -1.3708 C   0  0  0  0  0  0  0  0  0  0  0  0
    1.6874    2.2512   -0.0417 C   0  0  0  0  0  0  0  0  0  0  0  0
    2.2637    0.8845   -0.1369 C   0  0  0  0  0  0  0  0  0  0  0  0
    3.6071    0.7251   -0.2335 N   0  0  0  0  0  0  0  0  0  0  0  0
    4.1662   -0.4916   -0.3256 C   0  0  0  0  0  0  0  0  0  0  0  0
    5.5845   -0.6708   -0.4304 N   0  0  0  0  0  0  0  0  0  0  0  0
    3.3665   -1.5868   -0.3220 N   0  0  0  0  0  0  0  0  0  0  0  0
    2.0296   -1.5253   -0.2304 C   0  0  0  0  0  0  0  0  0  0  0  0
    1.1896   -2.6760   -0.2282 N   0  0  0  0  0  0  0  0  0  0  0  0
    1.4788   -0.2393   -0.1354 C   0  0  0  0  0  0  0  0  0  0  0  0
    0.0265   -0.1266   -0.0338 C   0  0  0  0  0  0  0  0  0  0  0  0
   -0.6899    0.1215   -1.1773 C   0  0  0  0  0  0  0  0  0  0  0  0
   -2.0590    0.2319   -1.1091 C   0  0  0  0  0  0  0  0  0  0  0  0
   -2.7328    0.0999    0.0757 C   0  0  0  0  0  0  0  0  0  0  0  0
   -4.2019    0.2068    0.2259 C   0  0  0  0  0  0  0  0  0  0  0  0
   -4.7642   -1.2116    0.3296 C   0  0  0  0  0  0  0  0  0  0  0  0
   -4.8038    0.8722   -0.9926 C   0  0  0  0  0  0  0  0  0  0  0  0
   -4.5857    0.9029    1.5127 C   0  0  0  0  0  0  0  0  0  0  0  0
   -2.0095   -0.1515    1.2379 C   0  0  0  0  0  0  0  0  0  0  0  0
   -0.6439   -0.2588    1.1556 C   0  0  0  0  0  0  0  0  0  0  0  0
  1  2  1  0
  2  3  1  0
  3  4  2  0
  4  5  1  0
  5  6  1  0
  5  7  2  0
  7  8  1  0
  8  9  1  0
  8 10  2  0
 10 11  1  0
 11 12  2  0
 12 13  1  0
 13 14  2  0
 14 15  1  0
 15 16  1  0
 15 17  1  0
 15 18  1  0
 14 19  1  0
 19 20  2  0
 10  3  1  0
 20 11  1  0
M  END
>  <zinc_id>  (236) 
ZINC000013472713

>  <ortholog_name>  (236) 
DRTS_PLAFK

>  <gene_name>  (236) 
DRTS_PLAFK

>  <affinity>  (236) 
9.22

>  <chembldocid>  (236) 
16871

>  <title>  (236) 
None

>  <reference.pubmed_id>  (236) 
11881993

>  <reference.doi>  (236) 
None

>  <reference.chembl_id>  (236) 
CHEMBL1135602

>  <reference.journal>  (236) 
J. Med. Chem.

>  <reference.year>  (236) 
2002

$$$$

     RDKit          3D

 20 21  0  0  0  0  0  0  0  0999 V2000
    1.0908    2.6423   -1.3708 C   0  0  0  0  0  0  0  0  0  0  0  0
    1.6874    2.2512   -0.0417 C   0  0  0  0  0  0  0  0  0  0  0  0
    2.2637    0.8845   -0.1369 C   0  0  0  0  0  0  0  0  0  0  0  0
    3.6071    0.7251   -0.2335 N   0  0  0  0  0  0  0  0  0  0  0  0
    4.1662   -0.4916   -0.3256 C   0  0  0  0  0  0  0  0  0  0  0  0
    5.5845   -0.6708   -0.4304 N   0  0  0  0  0  0  0  0  0  0  0  0
    3.3665   -1.5868   -0.3220 N   0  0  0  0  0  0  0  0  0  0  0  0
    2.0296   -1.5253   -0.2304 C   0  0  0  0  0  0  0  0  0  0  0  0
    1.1896   -2.6760   -0.2282 N   0  0  0  0  0  0  0  0  0  0  0  0
    1.4788   -0.2393   -0.1354 C   0  0  0  0  0  0  0  0  0  0  0  0
    0.0265   -0.1266   -0.0338 C   0  0  0  0  0  0  0  0  0  0  0  0
   -0.6899    0.1215   -1.1773 C   0  0  0  0  0  0  0  0  0  0  0  0
   -2.0590    0.2319   -1.1091 C   0  0  0  0  0  0  0  0  0  0  0  0
   -2.7328    0.0999    0.0757 C   0  0  0  0  0  0  0  0  0  0  0  0
   -4.2019    0.2068    0.2259 C   0  0  0  0  0  0  0  0  0  0  0  0
   -4.7642   -1.2116    0.3296 C   0  0  0  0  0  0  0  0  0  0  0  0
   -4.8038    0.8722   -0.9926 C   0  0  0  0  0  0  0  0  0  0  0  0
   -4.5857    0.9029    1.5127 C   0  0  0  0  0  0  0  0  0  0  0  0
   -2.0095   -0.1515    1.2379 C   0  0  0  0  0  0  0  0  0  0  0  0
   -0.6439   -0.2588    1.1556 C   0  0  0  0  0  0  0  0  0  0  0  0
  1  2  1  0
  2  3  1  0
  3  4  2  0
  4  5  1  0
  5  6  1  0
  5  7  2  0
  7  8  1  0
  8  9  1  0
  8 10  2  0
 10 11  1  0
 11 12  2  0
 12 13  1  0
 13 14  2  0
 14 15  1  0
 15 16  1  0
 15 17  1  0
 15 18  1  0
 14 19  1  0
 19 20  2  0
 10  3  1  0
 20 11  1  0
M  END
>  <zinc_id>  (237) 
ZINC000013472713

>  <ortholog_name>  (237) 
DRTS_PLAFK

>  <gene_name>  (237) 
DRTS_PLAFK

>  <affinity>  (237) 
9.11

>  <chembldocid>  (237) 
21047

>  <title>  (237) 
None

>  <reference.pubmed_id>  (237) 
15293997

>  <reference.doi>  (237) 
None

>  <reference.chembl_id>  (237) 
CHEMBL1138679

>  <reference.journal>  (237) 
J. Med. Chem.

>  <reference.year>  (237) 
2004

$$$$

     RDKit          3D

 20 21  0  0  0  0  0  0  0  0999 V2000
    1.0908    2.6423   -1.3708 C   0  0  0  0  0  0  0  0  0  0  0  0
    1.6874    2.2512   -0.0417 C   0  0  0  0  0  0  0  0  0  0  0  0
    2.2637    0.8845   -0.1369 C   0  0  0  0  0  0  0  0  0  0  0  0
    3.6071    0.7251   -0.2335 N   0  0  0  0  0  0  0  0  0  0  0  0
    4.1662   -0.4916   -0.3256 C   0  0  0  0  0  0  0  0  0  0  0  0
    5.5845   -0.6708   -0.4304 N   0  0  0  0  0  0  0  0  0  0  0  0
    3.3665   -1.5868   -0.3220 N   0  0  0  0  0  0  0  0  0  0  0  0
    2.0296   -1.5253   -0.2304 C   0  0  0  0  0  0  0  0  0  0  0  0
    1.1896   -2.6760   -0.2282 N   0  0  0  0  0  0  0  0  0  0  0  0
    1.4788   -0.2393   -0.1354 C   0  0  0  0  0  0  0  0  0  0  0  0
    0.0265   -0.1266   -0.0338 C   0  0  0  0  0  0  0  0  0  0  0  0
   -0.6899    0.1215   -1.1773 C   0  0  0  0  0  0  0  0  0  0  0  0
   -2.0590    0.2319   -1.1091 C   0  0  0  0  0  0  0  0  0  0  0  0
   -2.7328    0.0999    0.0757 C   0  0  0  0  0  0  0  0  0  0  0  0
   -4.2019    0.2068    0.2259 C   0  0  0  0  0  0  0  0  0  0  0  0
   -4.7642   -1.2116    0.3296 C   0  0  0  0  0  0  0  0  0  0  0  0
   -4.8038    0.8722   -0.9926 C   0  0  0  0  0  0  0  0  0  0  0  0
   -4.5857    0.9029    1.5127 C   0  0  0  0  0  0  0  0  0  0  0  0
   -2.0095   -0.1515    1.2379 C   0  0  0  0  0  0  0  0  0  0  0  0
   -0.6439   -0.2588    1.1556 C   0  0  0  0  0  0  0  0  0  0  0  0
  1  2  1  0
  2  3  1  0
  3  4  2  0
  4  5  1  0
  5  6  1  0
  5  7  2  0
  7  8  1  0
  8  9  1  0
  8 10  2  0
 10 11  1  0
 11 12  2  0
 12 13  1  0
 13 14  2  0
 14 15  1  0
 15 16  1  0
 15 17  1  0
 15 18  1  0
 14 19  1  0
 19 20  2  0
 10  3  1  0
 20 11  1  0
M  END
>  <zinc_id>  (238) 
ZINC000013472713

>  <ortholog_name>  (238) 
DRTS_PLAFK

>  <gene_name>  (238) 
DRTS_PLAFK

>  <affinity>  (238) 
6.90

>  <chembldocid>  (238) 
16871

>  <title>  (238) 
None

>  <reference.pubmed_id>  (238) 
11881993

>  <reference.doi>  (238) 
None

>  <reference.chembl_id>  (238) 
CHEMBL1135602

>  <reference.journal>  (238) 
J. Med. Chem.

>  <reference.year>  (238) 
2002

$$$$

     RDKit          3D

 20 21  0  0  0  0  0  0  0  0999 V2000
    1.0908    2.6423   -1.3708 C   0  0  0  0  0  0  0  0  0  0  0  0
    1.6874    2.2512   -0.0417 C   0  0  0  0  0  0  0  0  0  0  0  0
    2.2637    0.8845   -0.1369 C   0  0  0  0  0  0  0  0  0  0  0  0
    3.6071    0.7251   -0.2335 N   0  0  0  0  0  0  0  0  0  0  0  0
    4.1662   -0.4916   -0.3256 C   0  0  0  0  0  0  0  0  0  0  0  0
    5.5845   -0.6708   -0.4304 N   0  0  0  0  0  0  0  0  0  0  0  0
    3.3665   -1.5868   -0.3220 N   0  0  0  0  0  0  0  0  0  0  0  0
    2.0296   -1.5253   -0.2304 C   0  0  0  0  0  0  0  0  0  0  0  0
    1.1896   -2.6760   -0.2282 N   0  0  0  0  0  0  0  0  0  0  0  0
    1.4788   -0.2393   -0.1354 C   0  0  0  0  0  0  0  0  0  0  0  0
    0.0265   -0.1266   -0.0338 C   0  0  0  0  0  0  0  0  0  0  0  0
   -0.6899    0.1215   -1.1773 C   0  0  0  0  0  0  0  0  0  0  0  0
   -2.0590    0.2319   -1.1091 C   0  0  0  0  0  0  0  0  0  0  0  0
   -2.7328    0.0999    0.0757 C   0  0  0  0  0  0  0  0  0  0  0  0
   -4.2019    0.2068    0.2259 C   0  0  0  0  0  0  0  0  0  0  0  0
   -4.7642   -1.2116    0.3296 C   0  0  0  0  0  0  0  0  0  0  0  0
   -4.8038    0.8722   -0.9926 C   0  0  0  0  0  0  0  0  0  0  0  0
   -4.5857    0.9029    1.5127 C   0  0  0  0  0  0  0  0  0  0  0  0
   -2.0095   -0.1515    1.2379 C   0  0  0  0  0  0  0  0  0  0  0  0
   -0.6439   -0.2588    1.1556 C   0  0  0  0  0  0  0  0  0  0  0  0
  1  2  1  0
  2  3  1  0
  3  4  2  0
  4  5  1  0
  5  6  1  0
  5  7  2  0
  7  8  1  0
  8  9  1  0
  8 10  2  0
 10 11  1  0
 11 12  2  0
 12 13  1  0
 13 14  2  0
 14 15  1  0
 15 16  1  0
 15 17  1  0
 15 18  1  0
 14 19  1  0
 19 20  2  0
 10  3  1  0
 20 11  1  0
M  END
>  <zinc_id>  (239) 
ZINC000013472713

>  <ortholog_name>  (239) 
DRTS_PLAFK

>  <gene_name>  (239) 
DRTS_PLAFK

>  <affinity>  (239) 
5.41

>  <chembldocid>  (239) 
16871

>  <title>  (239) 
None

>  <reference.pubmed_id>  (239) 
11881993

>  <reference.doi>  (239) 
None

>  <reference.chembl_id>  (239) 
CHEMBL1135602

>  <reference.journal>  (239) 
J. Med. Chem.

>  <reference.year>  (239) 
2002

$$$$

     RDKit          3D

 20 21  0  0  0  0  0  0  0  0999 V2000
    1.0908    2.6423   -1.3708 C   0  0  0  0  0  0  0  0  0  0  0  0
    1.6874    2.2512   -0.0417 C   0  0  0  0  0  0  0  0  0  0  0  0
    2.2637    0.8845   -0.1369 C   0  0  0  0  0  0  0  0  0  0  0  0
    3.6071    0.7251   -0.2335 N   0  0  0  0  0  0  0  0  0  0  0  0
    4.1662   -0.4916   -0.3256 C   0  0  0  0  0  0  0  0  0  0  0  0
    5.5845   -0.6708   -0.4304 N   0  0  0  0  0  0  0  0  0  0  0  0
    3.3665   -1.5868   -0.3220 N   0  0  0  0  0  0  0  0  0  0  0  0
    2.0296   -1.5253   -0.2304 C   0  0  0  0  0  0  0  0  0  0  0  0
    1.1896   -2.6760   -0.2282 N   0  0  0  0  0  0  0  0  0  0  0  0
    1.4788   -0.2393   -0.1354 C   0  0  0  0  0  0  0  0  0  0  0  0
    0.0265   -0.1266   -0.0338 C   0  0  0  0  0  0  0  0  0  0  0  0
   -0.6899    0.1215   -1.1773 C   0  0  0  0  0  0  0  0  0  0  0  0
   -2.0590    0.2319   -1.1091 C   0  0  0  0  0  0  0  0  0  0  0  0
   -2.7328    0.0999    0.0757 C   0  0  0  0  0  0  0  0  0  0  0  0
   -4.2019    0.2068    0.2259 C   0  0  0  0  0  0  0  0  0  0  0  0
   -4.7642   -1.2116    0.3296 C   0  0  0  0  0  0  0  0  0  0  0  0
   -4.8038    0.8722   -0.9926 C   0  0  0  0  0  0  0  0  0  0  0  0
   -4.5857    0.9029    1.5127 C   0  0  0  0  0  0  0  0  0  0  0  0
   -2.0095   -0.1515    1.2379 C   0  0  0  0  0  0  0  0  0  0  0  0
   -0.6439   -0.2588    1.1556 C   0  0  0  0  0  0  0  0  0  0  0  0
  1  2  1  0
  2  3  1  0
  3  4  2  0
  4  5  1  0
  5  6  1  0
  5  7  2  0
  7  8  1  0
  8  9  1  0
  8 10  2  0
 10 11  1  0
 11 12  2  0
 12 13  1  0
 13 14  2  0
 14 15  1  0
 15 16  1  0
 15 17  1  0
 15 18  1  0
 14 19  1  0
 19 20  2  0
 10  3  1  0
 20 11  1  0
M  END
>  <zinc_id>  (240) 
ZINC000013472713

>  <ortholog_name>  (240) 
DRTS_PLAFK

>  <gene_name>  (240) 
DRTS_PLAFK

>  <affinity>  (240) 
7.18

>  <chembldocid>  (240) 
16871

>  <title>  (240) 
None

>  <reference.pubmed_id>  (240) 
11881993

>  <reference.doi>  (240) 
None

>  <reference.chembl_id>  (240) 
CHEMBL1135602

>  <reference.journal>  (240) 
J. Med. Chem.

>  <reference.year>  (240) 
2002

$$$$

     RDKit          3D

 22 24  0  0  0  0  0  0  0  0999 V2000
    1.8708    1.8625   -1.7635 C   0  0  0  0  0  0  0  0  0  0  0  0
    2.3978    2.0344   -0.3583 C   0  0  0  0  0  0  0  0  0  0  0  0
    3.0133    0.7260    0.0572 C   0  0  0  0  0  0  0  0  0  0  0  0
    4.3382    0.5611    0.0927 N   0  0  0  0  0  0  0  0  0  0  0  0
    4.8788   -0.6063    0.4820 C   0  0  0  0  0  0  0  0  0  0  0  0
    6.2626   -0.8781    0.5460 N   0  0  0  0  0  0  0  0  0  0  0  0
    4.0354   -1.6068    0.8382 N   0  0  0  0  0  0  0  0  0  0  0  0
    2.7074   -1.4773    0.8138 C   0  0  0  0  0  0  0  0  0  0  0  0
    1.8500   -2.5718    1.2013 N   0  0  0  0  0  0  0  0  0  0  0  0
    2.1536   -0.2814    0.4116 C   0  0  0  0  0  0  0  0  0  0  0  0
    0.7117   -0.0907    0.3152 C   0  0  0  0  0  0  0  0  0  0  0  0
   -0.0377    0.7506    1.0913 C   0  0  0  0  0  0  0  0  0  0  0  0
   -1.4145    0.8851    0.9481 C   0  0  0  0  0  0  0  0  0  0  0  0
   -2.0704    0.1516   -0.0058 C   0  0  0  0  0  0  0  0  0  0  0  0
   -3.5155    0.2679   -0.2141 C   0  0  0  0  0  0  0  0  0  0  0  0
   -4.2148    1.4388   -0.0250 C   0  0  0  0  0  0  0  0  0  0  0  0
   -5.5804    1.5583   -0.2211 C   0  0  0  0  0  0  0  0  0  0  0  0
   -6.2468    0.4171   -0.6281 C   0  0  0  0  0  0  0  0  0  0  0  0
   -5.5676   -0.7507   -0.8196 C   0  0  0  0  0  0  0  0  0  0  0  0
   -4.2355   -0.8524   -0.6249 C   0  0  0  0  0  0  0  0  0  0  0  0
   -1.3541   -0.7058   -0.8057 C   0  0  0  0  0  0  0  0  0  0  0  0
    0.0176   -0.8320   -0.6554 C   0  0  0  0  0  0  0  0  0  0  0  0
  1  2  1  0
  2  3  1  0
  3  4  2  0
  4  5  1  0
  5  6  1  0
  5  7  2  0
  7  8  1  0
  8  9  1  0
  8 10  2  0
 10 11  1  0
 11 12  2  0
 12 13  1  0
 13 14  2  0
 14 15  1  0
 15 16  2  0
 16 17  1  0
 17 18  2  0
 18 19  1  0
 19 20  2  0
 14 21  1  0
 21 22  2  0
 10  3  1  0
 22 11  1  0
 20 15  1  0
M  END
>  <zinc_id>  (241) 
ZINC000013472714

>  <ortholog_name>  (241) 
DRTS_PLAFK

>  <gene_name>  (241) 
DRTS_PLAFK

>  <affinity>  (241) 
6.73

>  <chembldocid>  (241) 
16871

>  <title>  (241) 
None

>  <reference.pubmed_id>  (241) 
11881993

>  <reference.doi>  (241) 
None

>  <reference.chembl_id>  (241) 
CHEMBL1135602

>  <reference.journal>  (241) 
J. Med. Chem.

>  <reference.year>  (241) 
2002

$$$$

     RDKit          3D

 22 24  0  0  0  0  0  0  0  0999 V2000
    1.8708    1.8625   -1.7635 C   0  0  0  0  0  0  0  0  0  0  0  0
    2.3978    2.0344   -0.3583 C   0  0  0  0  0  0  0  0  0  0  0  0
    3.0133    0.7260    0.0572 C   0  0  0  0  0  0  0  0  0  0  0  0
    4.3382    0.5611    0.0927 N   0  0  0  0  0  0  0  0  0  0  0  0
    4.8788   -0.6063    0.4820 C   0  0  0  0  0  0  0  0  0  0  0  0
    6.2626   -0.8781    0.5460 N   0  0  0  0  0  0  0  0  0  0  0  0
    4.0354   -1.6068    0.8382 N   0  0  0  0  0  0  0  0  0  0  0  0
    2.7074   -1.4773    0.8138 C   0  0  0  0  0  0  0  0  0  0  0  0
    1.8500   -2.5718    1.2013 N   0  0  0  0  0  0  0  0  0  0  0  0
    2.1536   -0.2814    0.4116 C   0  0  0  0  0  0  0  0  0  0  0  0
    0.7117   -0.0907    0.3152 C   0  0  0  0  0  0  0  0  0  0  0  0
   -0.0377    0.7506    1.0913 C   0  0  0  0  0  0  0  0  0  0  0  0
   -1.4145    0.8851    0.9481 C   0  0  0  0  0  0  0  0  0  0  0  0
   -2.0704    0.1516   -0.0058 C   0  0  0  0  0  0  0  0  0  0  0  0
   -3.5155    0.2679   -0.2141 C   0  0  0  0  0  0  0  0  0  0  0  0
   -4.2148    1.4388   -0.0250 C   0  0  0  0  0  0  0  0  0  0  0  0
   -5.5804    1.5583   -0.2211 C   0  0  0  0  0  0  0  0  0  0  0  0
   -6.2468    0.4171   -0.6281 C   0  0  0  0  0  0  0  0  0  0  0  0
   -5.5676   -0.7507   -0.8196 C   0  0  0  0  0  0  0  0  0  0  0  0
   -4.2355   -0.8524   -0.6249 C   0  0  0  0  0  0  0  0  0  0  0  0
   -1.3541   -0.7058   -0.8057 C   0  0  0  0  0  0  0  0  0  0  0  0
    0.0176   -0.8320   -0.6554 C   0  0  0  0  0  0  0  0  0  0  0  0
  1  2  1  0
  2  3  1  0
  3  4  2  0
  4  5  1  0
  5  6  1  0
  5  7  2  0
  7  8  1  0
  8  9  1  0
  8 10  2  0
 10 11  1  0
 11 12  2  0
 12 13  1  0
 13 14  2  0
 14 15  1  0
 15 16  2  0
 16 17  1  0
 17 18  2  0
 18 19  1  0
 19 20  2  0
 14 21  1  0
 21 22  2  0
 10  3  1  0
 22 11  1  0
 20 15  1  0
M  END
>  <zinc_id>  (242) 
ZINC000013472714

>  <ortholog_name>  (242) 
DRTS_PLAFK

>  <gene_name>  (242) 
DRTS_PLAFK

>  <affinity>  (242) 
6.38

>  <chembldocid>  (242) 
16871

>  <title>  (242) 
None

>  <reference.pubmed_id>  (242) 
11881993

>  <reference.doi>  (242) 
None

>  <reference.chembl_id>  (242) 
CHEMBL1135602

>  <reference.journal>  (242) 
J. Med. Chem.

>  <reference.year>  (242) 
2002

$$$$

     RDKit          3D

 22 24  0  0  0  0  0  0  0  0999 V2000
    1.8708    1.8625   -1.7635 C   0  0  0  0  0  0  0  0  0  0  0  0
    2.3978    2.0344   -0.3583 C   0  0  0  0  0  0  0  0  0  0  0  0
    3.0133    0.7260    0.0572 C   0  0  0  0  0  0  0  0  0  0  0  0
    4.3382    0.5611    0.0927 N   0  0  0  0  0  0  0  0  0  0  0  0
    4.8788   -0.6063    0.4820 C   0  0  0  0  0  0  0  0  0  0  0  0
    6.2626   -0.8781    0.5460 N   0  0  0  0  0  0  0  0  0  0  0  0
    4.0354   -1.6068    0.8382 N   0  0  0  0  0  0  0  0  0  0  0  0
    2.7074   -1.4773    0.8138 C   0  0  0  0  0  0  0  0  0  0  0  0
    1.8500   -2.5718    1.2013 N   0  0  0  0  0  0  0  0  0  0  0  0
    2.1536   -0.2814    0.4116 C   0  0  0  0  0  0  0  0  0  0  0  0
    0.7117   -0.0907    0.3152 C   0  0  0  0  0  0  0  0  0  0  0  0
   -0.0377    0.7506    1.0913 C   0  0  0  0  0  0  0  0  0  0  0  0
   -1.4145    0.8851    0.9481 C   0  0  0  0  0  0  0  0  0  0  0  0
   -2.0704    0.1516   -0.0058 C   0  0  0  0  0  0  0  0  0  0  0  0
   -3.5155    0.2679   -0.2141 C   0  0  0  0  0  0  0  0  0  0  0  0
   -4.2148    1.4388   -0.0250 C   0  0  0  0  0  0  0  0  0  0  0  0
   -5.5804    1.5583   -0.2211 C   0  0  0  0  0  0  0  0  0  0  0  0
   -6.2468    0.4171   -0.6281 C   0  0  0  0  0  0  0  0  0  0  0  0
   -5.5676   -0.7507   -0.8196 C   0  0  0  0  0  0  0  0  0  0  0  0
   -4.2355   -0.8524   -0.6249 C   0  0  0  0  0  0  0  0  0  0  0  0
   -1.3541   -0.7058   -0.8057 C   0  0  0  0  0  0  0  0  0  0  0  0
    0.0176   -0.8320   -0.6554 C   0  0  0  0  0  0  0  0  0  0  0  0
  1  2  1  0
  2  3  1  0
  3  4  2  0
  4  5  1  0
  5  6  1  0
  5  7  2  0
  7  8  1  0
  8  9  1  0
  8 10  2  0
 10 11  1  0
 11 12  2  0
 12 13  1  0
 13 14  2  0
 14 15  1  0
 15 16  2  0
 16 17  1  0
 17 18  2  0
 18 19  1  0
 19 20  2  0
 14 21  1  0
 21 22  2  0
 10  3  1  0
 22 11  1  0
 20 15  1  0
M  END
>  <zinc_id>  (243) 
ZINC000013472714

>  <ortholog_name>  (243) 
DRTS_PLAFK

>  <gene_name>  (243) 
DRTS_PLAFK

>  <affinity>  (243) 
5.36

>  <chembldocid>  (243) 
16871

>  <title>  (243) 
None

>  <reference.pubmed_id>  (243) 
11881993

>  <reference.doi>  (243) 
None

>  <reference.chembl_id>  (243) 
CHEMBL1135602

>  <reference.journal>  (243) 
J. Med. Chem.

>  <reference.year>  (243) 
2002

$$$$

     RDKit          3D

 22 24  0  0  0  0  0  0  0  0999 V2000
    1.8708    1.8625   -1.7635 C   0  0  0  0  0  0  0  0  0  0  0  0
    2.3978    2.0344   -0.3583 C   0  0  0  0  0  0  0  0  0  0  0  0
    3.0133    0.7260    0.0572 C   0  0  0  0  0  0  0  0  0  0  0  0
    4.3382    0.5611    0.0927 N   0  0  0  0  0  0  0  0  0  0  0  0
    4.8788   -0.6063    0.4820 C   0  0  0  0  0  0  0  0  0  0  0  0
    6.2626   -0.8781    0.5460 N   0  0  0  0  0  0  0  0  0  0  0  0
    4.0354   -1.6068    0.8382 N   0  0  0  0  0  0  0  0  0  0  0  0
    2.7074   -1.4773    0.8138 C   0  0  0  0  0  0  0  0  0  0  0  0
    1.8500   -2.5718    1.2013 N   0  0  0  0  0  0  0  0  0  0  0  0
    2.1536   -0.2814    0.4116 C   0  0  0  0  0  0  0  0  0  0  0  0
    0.7117   -0.0907    0.3152 C   0  0  0  0  0  0  0  0  0  0  0  0
   -0.0377    0.7506    1.0913 C   0  0  0  0  0  0  0  0  0  0  0  0
   -1.4145    0.8851    0.9481 C   0  0  0  0  0  0  0  0  0  0  0  0
   -2.0704    0.1516   -0.0058 C   0  0  0  0  0  0  0  0  0  0  0  0
   -3.5155    0.2679   -0.2141 C   0  0  0  0  0  0  0  0  0  0  0  0
   -4.2148    1.4388   -0.0250 C   0  0  0  0  0  0  0  0  0  0  0  0
   -5.5804    1.5583   -0.2211 C   0  0  0  0  0  0  0  0  0  0  0  0
   -6.2468    0.4171   -0.6281 C   0  0  0  0  0  0  0  0  0  0  0  0
   -5.5676   -0.7507   -0.8196 C   0  0  0  0  0  0  0  0  0  0  0  0
   -4.2355   -0.8524   -0.6249 C   0  0  0  0  0  0  0  0  0  0  0  0
   -1.3541   -0.7058   -0.8057 C   0  0  0  0  0  0  0  0  0  0  0  0
    0.0176   -0.8320   -0.6554 C   0  0  0  0  0  0  0  0  0  0  0  0
  1  2  1  0
  2  3  1  0
  3  4  2  0
  4  5  1  0
  5  6  1  0
  5  7  2  0
  7  8  1  0
  8  9  1  0
  8 10  2  0
 10 11  1  0
 11 12  2  0
 12 13  1  0
 13 14  2  0
 14 15  1  0
 15 16  2  0
 16 17  1  0
 17 18  2  0
 18 19  1  0
 19 20  2  0
 14 21  1  0
 21 22  2  0
 10  3  1  0
 22 11  1  0
 20 15  1  0
M  END
>  <zinc_id>  (244) 
ZINC000013472714

>  <ortholog_name>  (244) 
DRTS_PLAFK

>  <gene_name>  (244) 
DRTS_PLAFK

>  <affinity>  (244) 
6.14

>  <chembldocid>  (244) 
16871

>  <title>  (244) 
None

>  <reference.pubmed_id>  (244) 
11881993

>  <reference.doi>  (244) 
None

>  <reference.chembl_id>  (244) 
CHEMBL1135602

>  <reference.journal>  (244) 
J. Med. Chem.

>  <reference.year>  (244) 
2002

$$$$

     RDKit          3D

 22 24  0  0  0  0  0  0  0  0999 V2000
    1.8708    1.8625   -1.7635 C   0  0  0  0  0  0  0  0  0  0  0  0
    2.3978    2.0344   -0.3583 C   0  0  0  0  0  0  0  0  0  0  0  0
    3.0133    0.7260    0.0572 C   0  0  0  0  0  0  0  0  0  0  0  0
    4.3382    0.5611    0.0927 N   0  0  0  0  0  0  0  0  0  0  0  0
    4.8788   -0.6063    0.4820 C   0  0  0  0  0  0  0  0  0  0  0  0
    6.2626   -0.8781    0.5460 N   0  0  0  0  0  0  0  0  0  0  0  0
    4.0354   -1.6068    0.8382 N   0  0  0  0  0  0  0  0  0  0  0  0
    2.7074   -1.4773    0.8138 C   0  0  0  0  0  0  0  0  0  0  0  0
    1.8500   -2.5718    1.2013 N   0  0  0  0  0  0  0  0  0  0  0  0
    2.1536   -0.2814    0.4116 C   0  0  0  0  0  0  0  0  0  0  0  0
    0.7117   -0.0907    0.3152 C   0  0  0  0  0  0  0  0  0  0  0  0
   -0.0377    0.7506    1.0913 C   0  0  0  0  0  0  0  0  0  0  0  0
   -1.4145    0.8851    0.9481 C   0  0  0  0  0  0  0  0  0  0  0  0
   -2.0704    0.1516   -0.0058 C   0  0  0  0  0  0  0  0  0  0  0  0
   -3.5155    0.2679   -0.2141 C   0  0  0  0  0  0  0  0  0  0  0  0
   -4.2148    1.4388   -0.0250 C   0  0  0  0  0  0  0  0  0  0  0  0
   -5.5804    1.5583   -0.2211 C   0  0  0  0  0  0  0  0  0  0  0  0
   -6.2468    0.4171   -0.6281 C   0  0  0  0  0  0  0  0  0  0  0  0
   -5.5676   -0.7507   -0.8196 C   0  0  0  0  0  0  0  0  0  0  0  0
   -4.2355   -0.8524   -0.6249 C   0  0  0  0  0  0  0  0  0  0  0  0
   -1.3541   -0.7058   -0.8057 C   0  0  0  0  0  0  0  0  0  0  0  0
    0.0176   -0.8320   -0.6554 C   0  0  0  0  0  0  0  0  0  0  0  0
  1  2  1  0
  2  3  1  0
  3  4  2  0
  4  5  1  0
  5  6  1  0
  5  7  2  0
  7  8  1  0
  8  9  1  0
  8 10  2  0
 10 11  1  0
 11 12  2  0
 12 13  1  0
 13 14  2  0
 14 15  1  0
 15 16  2  0
 16 17  1  0
 17 18  2  0
 18 19  1  0
 19 20  2  0
 14 21  1  0
 21 22  2  0
 10  3  1  0
 22 11  1  0
 20 15  1  0
M  END
>  <zinc_id>  (245) 
ZINC000013472714

>  <ortholog_name>  (245) 
DRTS_PLAFK

>  <gene_name>  (245) 
DRTS_PLAFK

>  <affinity>  (245) 
7.05

>  <chembldocid>  (245) 
21047

>  <title>  (245) 
None

>  <reference.pubmed_id>  (245) 
15293997

>  <reference.doi>  (245) 
None

>  <reference.chembl_id>  (245) 
CHEMBL1138679

>  <reference.journal>  (245) 
J. Med. Chem.

>  <reference.year>  (245) 
2004

$$$$

     RDKit          3D

 18 19  0  0  0  0  0  0  0  0999 V2000
    0.0146   -2.0976   -1.8525 C   0  0  0  0  0  0  0  0  0  0  0  0
   -0.4154   -0.7105   -2.2229 C   0  0  0  0  0  0  0  0  0  0  0  0
   -1.4155   -0.1172   -1.3042 C   0  0  0  0  0  0  0  0  0  0  0  0
   -2.7245    0.0064   -1.5893 N   0  0  0  0  0  0  0  0  0  0  0  0
   -3.6009    0.5634   -0.7261 C   0  0  0  0  0  0  0  0  0  0  0  0
   -4.9900    0.6741   -1.0783 N   0  0  0  0  0  0  0  0  0  0  0  0
   -3.1426    1.0076    0.4568 N   0  0  0  0  0  0  0  0  0  0  0  0
   -1.8379    0.9198    0.8213 C   0  0  0  0  0  0  0  0  0  0  0  0
   -1.3755    1.3915    2.0777 N   0  0  0  0  0  0  0  0  0  0  0  0
   -0.9746    0.3452   -0.0860 C   0  0  0  0  0  0  0  0  0  0  0  0
    0.4417    0.2149    0.2528 C   0  0  0  0  0  0  0  0  0  0  0  0
    0.8609   -0.8854    0.9849 C   0  0  0  0  0  0  0  0  0  0  0  0
    2.1916   -1.0384    1.3141 C   0  0  0  0  0  0  0  0  0  0  0  0
    3.1210   -0.0852    0.9100 C   0  0  0  0  0  0  0  0  0  0  0  0
    4.4757   -0.2338    1.2381 O   0  0  0  0  0  0  0  0  0  0  0  0
    5.3757    0.7848    0.7815 C   0  0  0  0  0  0  0  0  0  0  0  0
    2.6496    0.9804    0.1887 C   0  0  0  0  0  0  0  0  0  0  0  0
    1.3461    1.1857   -0.1666 C   0  0  0  0  0  0  0  0  0  0  0  0
  1  2  1  0
  2  3  1  0
  3  4  2  0
  4  5  1  0
  5  6  1  0
  5  7  2  0
  7  8  1  0
  8  9  1  0
  8 10  2  0
 10 11  1  0
 11 12  2  0
 12 13  1  0
 13 14  2  0
 14 15  1  0
 15 16  1  0
 14 17  1  0
 17 18  2  0
 10  3  1  0
 18 11  1  0
M  END
>  <zinc_id>  (246) 
ZINC000013472715

>  <ortholog_name>  (246) 
DRTS_PLAFK

>  <gene_name>  (246) 
DRTS_PLAFK

>  <affinity>  (246) 
9.05

>  <chembldocid>  (246) 
16871

>  <title>  (246) 
None

>  <reference.pubmed_id>  (246) 
11881993

>  <reference.doi>  (246) 
None

>  <reference.chembl_id>  (246) 
CHEMBL1135602

>  <reference.journal>  (246) 
J. Med. Chem.

>  <reference.year>  (246) 
2002

$$$$

     RDKit          3D

 18 19  0  0  0  0  0  0  0  0999 V2000
    0.0146   -2.0976   -1.8525 C   0  0  0  0  0  0  0  0  0  0  0  0
   -0.4154   -0.7105   -2.2229 C   0  0  0  0  0  0  0  0  0  0  0  0
   -1.4155   -0.1172   -1.3042 C   0  0  0  0  0  0  0  0  0  0  0  0
   -2.7245    0.0064   -1.5893 N   0  0  0  0  0  0  0  0  0  0  0  0
   -3.6009    0.5634   -0.7261 C   0  0  0  0  0  0  0  0  0  0  0  0
   -4.9900    0.6741   -1.0783 N   0  0  0  0  0  0  0  0  0  0  0  0
   -3.1426    1.0076    0.4568 N   0  0  0  0  0  0  0  0  0  0  0  0
   -1.8379    0.9198    0.8213 C   0  0  0  0  0  0  0  0  0  0  0  0
   -1.3755    1.3915    2.0777 N   0  0  0  0  0  0  0  0  0  0  0  0
   -0.9746    0.3452   -0.0860 C   0  0  0  0  0  0  0  0  0  0  0  0
    0.4417    0.2149    0.2528 C   0  0  0  0  0  0  0  0  0  0  0  0
    0.8609   -0.8854    0.9849 C   0  0  0  0  0  0  0  0  0  0  0  0
    2.1916   -1.0384    1.3141 C   0  0  0  0  0  0  0  0  0  0  0  0
    3.1210   -0.0852    0.9100 C   0  0  0  0  0  0  0  0  0  0  0  0
    4.4757   -0.2338    1.2381 O   0  0  0  0  0  0  0  0  0  0  0  0
    5.3757    0.7848    0.7815 C   0  0  0  0  0  0  0  0  0  0  0  0
    2.6496    0.9804    0.1887 C   0  0  0  0  0  0  0  0  0  0  0  0
    1.3461    1.1857   -0.1666 C   0  0  0  0  0  0  0  0  0  0  0  0
  1  2  1  0
  2  3  1  0
  3  4  2  0
  4  5  1  0
  5  6  1  0
  5  7  2  0
  7  8  1  0
  8  9  1  0
  8 10  2  0
 10 11  1  0
 11 12  2  0
 12 13  1  0
 13 14  2  0
 14 15  1  0
 15 16  1  0
 14 17  1  0
 17 18  2  0
 10  3  1  0
 18 11  1  0
M  END
>  <zinc_id>  (247) 
ZINC000013472715

>  <ortholog_name>  (247) 
DRTS_PLAFK

>  <gene_name>  (247) 
DRTS_PLAFK

>  <affinity>  (247) 
8.89

>  <chembldocid>  (247) 
21047

>  <title>  (247) 
None

>  <reference.pubmed_id>  (247) 
15293997

>  <reference.doi>  (247) 
None

>  <reference.chembl_id>  (247) 
CHEMBL1138679

>  <reference.journal>  (247) 
J. Med. Chem.

>  <reference.year>  (247) 
2004

$$$$

     RDKit          3D

 18 19  0  0  0  0  0  0  0  0999 V2000
    0.0146   -2.0976   -1.8525 C   0  0  0  0  0  0  0  0  0  0  0  0
   -0.4154   -0.7105   -2.2229 C   0  0  0  0  0  0  0  0  0  0  0  0
   -1.4155   -0.1172   -1.3042 C   0  0  0  0  0  0  0  0  0  0  0  0
   -2.7245    0.0064   -1.5893 N   0  0  0  0  0  0  0  0  0  0  0  0
   -3.6009    0.5634   -0.7261 C   0  0  0  0  0  0  0  0  0  0  0  0
   -4.9900    0.6741   -1.0783 N   0  0  0  0  0  0  0  0  0  0  0  0
   -3.1426    1.0076    0.4568 N   0  0  0  0  0  0  0  0  0  0  0  0
   -1.8379    0.9198    0.8213 C   0  0  0  0  0  0  0  0  0  0  0  0
   -1.3755    1.3915    2.0777 N   0  0  0  0  0  0  0  0  0  0  0  0
   -0.9746    0.3452   -0.0860 C   0  0  0  0  0  0  0  0  0  0  0  0
    0.4417    0.2149    0.2528 C   0  0  0  0  0  0  0  0  0  0  0  0
    0.8609   -0.8854    0.9849 C   0  0  0  0  0  0  0  0  0  0  0  0
    2.1916   -1.0384    1.3141 C   0  0  0  0  0  0  0  0  0  0  0  0
    3.1210   -0.0852    0.9100 C   0  0  0  0  0  0  0  0  0  0  0  0
    4.4757   -0.2338    1.2381 O   0  0  0  0  0  0  0  0  0  0  0  0
    5.3757    0.7848    0.7815 C   0  0  0  0  0  0  0  0  0  0  0  0
    2.6496    0.9804    0.1887 C   0  0  0  0  0  0  0  0  0  0  0  0
    1.3461    1.1857   -0.1666 C   0  0  0  0  0  0  0  0  0  0  0  0
  1  2  1  0
  2  3  1  0
  3  4  2  0
  4  5  1  0
  5  6  1  0
  5  7  2  0
  7  8  1  0
  8  9  1  0
  8 10  2  0
 10 11  1  0
 11 12  2  0
 12 13  1  0
 13 14  2  0
 14 15  1  0
 15 16  1  0
 14 17  1  0
 17 18  2  0
 10  3  1  0
 18 11  1  0
M  END
>  <zinc_id>  (248) 
ZINC000013472715

>  <ortholog_name>  (248) 
DRTS_PLAFK

>  <gene_name>  (248) 
DRTS_PLAFK

>  <affinity>  (248) 
7.41

>  <chembldocid>  (248) 
16871

>  <title>  (248) 
None

>  <reference.pubmed_id>  (248) 
11881993

>  <reference.doi>  (248) 
None

>  <reference.chembl_id>  (248) 
CHEMBL1135602

>  <reference.journal>  (248) 
J. Med. Chem.

>  <reference.year>  (248) 
2002

$$$$

     RDKit          3D

 18 19  0  0  0  0  0  0  0  0999 V2000
    0.0146   -2.0976   -1.8525 C   0  0  0  0  0  0  0  0  0  0  0  0
   -0.4154   -0.7105   -2.2229 C   0  0  0  0  0  0  0  0  0  0  0  0
   -1.4155   -0.1172   -1.3042 C   0  0  0  0  0  0  0  0  0  0  0  0
   -2.7245    0.0064   -1.5893 N   0  0  0  0  0  0  0  0  0  0  0  0
   -3.6009    0.5634   -0.7261 C   0  0  0  0  0  0  0  0  0  0  0  0
   -4.9900    0.6741   -1.0783 N   0  0  0  0  0  0  0  0  0  0  0  0
   -3.1426    1.0076    0.4568 N   0  0  0  0  0  0  0  0  0  0  0  0
   -1.8379    0.9198    0.8213 C   0  0  0  0  0  0  0  0  0  0  0  0
   -1.3755    1.3915    2.0777 N   0  0  0  0  0  0  0  0  0  0  0  0
   -0.9746    0.3452   -0.0860 C   0  0  0  0  0  0  0  0  0  0  0  0
    0.4417    0.2149    0.2528 C   0  0  0  0  0  0  0  0  0  0  0  0
    0.8609   -0.8854    0.9849 C   0  0  0  0  0  0  0  0  0  0  0  0
    2.1916   -1.0384    1.3141 C   0  0  0  0  0  0  0  0  0  0  0  0
    3.1210   -0.0852    0.9100 C   0  0  0  0  0  0  0  0  0  0  0  0
    4.4757   -0.2338    1.2381 O   0  0  0  0  0  0  0  0  0  0  0  0
    5.3757    0.7848    0.7815 C   0  0  0  0  0  0  0  0  0  0  0  0
    2.6496    0.9804    0.1887 C   0  0  0  0  0  0  0  0  0  0  0  0
    1.3461    1.1857   -0.1666 C   0  0  0  0  0  0  0  0  0  0  0  0
  1  2  1  0
  2  3  1  0
  3  4  2  0
  4  5  1  0
  5  6  1  0
  5  7  2  0
  7  8  1  0
  8  9  1  0
  8 10  2  0
 10 11  1  0
 11 12  2  0
 12 13  1  0
 13 14  2  0
 14 15  1  0
 15 16  1  0
 14 17  1  0
 17 18  2  0
 10  3  1  0
 18 11  1  0
M  END
>  <zinc_id>  (249) 
ZINC000013472715

>  <ortholog_name>  (249) 
DRTS_PLAFK

>  <gene_name>  (249) 
DRTS_PLAFK

>  <affinity>  (249) 
7.07

>  <chembldocid>  (249) 
16871

>  <title>  (249) 
None

>  <reference.pubmed_id>  (249) 
11881993

>  <reference.doi>  (249) 
None

>  <reference.chembl_id>  (249) 
CHEMBL1135602

>  <reference.journal>  (249) 
J. Med. Chem.

>  <reference.year>  (249) 
2002

$$$$

     RDKit          3D

 17 18  0  0  0  0  0  0  0  0999 V2000
   -1.2234    2.5101    1.4780 C   0  0  0  0  0  0  0  0  0  0  0  0
   -1.5179    1.9887    0.1018 C   0  0  0  0  0  0  0  0  0  0  0  0
   -1.6377    0.4940    0.0612 C   0  0  0  0  0  0  0  0  0  0  0  0
   -2.8516   -0.0932   -0.0116 N   0  0  0  0  0  0  0  0  0  0  0  0
   -3.0310   -1.4244   -0.0404 C   0  0  0  0  0  0  0  0  0  0  0  0
   -4.3148   -2.0254   -0.1195 N   0  0  0  0  0  0  0  0  0  0  0  0
   -1.8943   -2.1796    0.0104 N   0  0  0  0  0  0  0  0  0  0  0  0
   -0.6641   -1.6476    0.0839 C   0  0  0  0  0  0  0  0  0  0  0  0
    0.5144   -2.4308    0.1432 N   0  0  0  0  0  0  0  0  0  0  0  0
   -0.4911   -0.2486    0.1103 C   0  0  0  0  0  0  0  0  0  0  0  0
    0.8510    0.3117    0.1484 C   0  0  0  0  0  0  0  0  0  0  0  0
    1.4082    1.0205    1.1730 C   0  0  0  0  0  0  0  0  0  0  0  0
    2.6954    1.5188    1.1816 C   0  0  0  0  0  0  0  0  0  0  0  0
    3.4638    1.2671    0.0535 C   0  0  0  0  0  0  0  0  0  0  0  0
    2.9708    0.5645   -1.0083 C   0  0  0  0  0  0  0  0  0  0  0  0
    4.0414    0.2835   -2.3967 Cl  0  0  0  0  0  0  0  0  0  0  0  0
    1.6809    0.0907   -0.9689 C   0  0  0  0  0  0  0  0  0  0  0  0
  1  2  1  0
  2  3  1  0
  3  4  2  0
  4  5  1  0
  5  6  1  0
  5  7  2  0
  7  8  1  0
  8  9  1  0
  8 10  2  0
 10 11  1  0
 11 12  2  0
 12 13  1  0
 13 14  2  0
 14 15  1  0
 15 16  1  0
 15 17  2  0
 10  3  1  0
 17 11  1  0
M  END
>  <zinc_id>  (250) 
ZINC000013472716

>  <ortholog_name>  (250) 
DRTS_PLAFK

>  <gene_name>  (250) 
DRTS_PLAFK

>  <affinity>  (250) 
9.52

>  <chembldocid>  (250) 
14888

>  <title>  (250) 
None

>  <reference.pubmed_id>  (250) 
9554869

>  <reference.doi>  (250) 
None

>  <reference.chembl_id>  (250) 
CHEMBL1131602

>  <reference.journal>  (250) 
J. Med. Chem.

>  <reference.year>  (250) 
1998

$$$$

     RDKit          3D

 17 18  0  0  0  0  0  0  0  0999 V2000
   -1.2234    2.5101    1.4780 C   0  0  0  0  0  0  0  0  0  0  0  0
   -1.5179    1.9887    0.1018 C   0  0  0  0  0  0  0  0  0  0  0  0
   -1.6377    0.4940    0.0612 C   0  0  0  0  0  0  0  0  0  0  0  0
   -2.8516   -0.0932   -0.0116 N   0  0  0  0  0  0  0  0  0  0  0  0
   -3.0310   -1.4244   -0.0404 C   0  0  0  0  0  0  0  0  0  0  0  0
   -4.3148   -2.0254   -0.1195 N   0  0  0  0  0  0  0  0  0  0  0  0
   -1.8943   -2.1796    0.0104 N   0  0  0  0  0  0  0  0  0  0  0  0
   -0.6641   -1.6476    0.0839 C   0  0  0  0  0  0  0  0  0  0  0  0
    0.5144   -2.4308    0.1432 N   0  0  0  0  0  0  0  0  0  0  0  0
   -0.4911   -0.2486    0.1103 C   0  0  0  0  0  0  0  0  0  0  0  0
    0.8510    0.3117    0.1484 C   0  0  0  0  0  0  0  0  0  0  0  0
    1.4082    1.0205    1.1730 C   0  0  0  0  0  0  0  0  0  0  0  0
    2.6954    1.5188    1.1816 C   0  0  0  0  0  0  0  0  0  0  0  0
    3.4638    1.2671    0.0535 C   0  0  0  0  0  0  0  0  0  0  0  0
    2.9708    0.5645   -1.0083 C   0  0  0  0  0  0  0  0  0  0  0  0
    4.0414    0.2835   -2.3967 Cl  0  0  0  0  0  0  0  0  0  0  0  0
    1.6809    0.0907   -0.9689 C   0  0  0  0  0  0  0  0  0  0  0  0
  1  2  1  0
  2  3  1  0
  3  4  2  0
  4  5  1  0
  5  6  1  0
  5  7  2  0
  7  8  1  0
  8  9  1  0
  8 10  2  0
 10 11  1  0
 11 12  2  0
 12 13  1  0
 13 14  2  0
 14 15  1  0
 15 16  1  0
 15 17  2  0
 10  3  1  0
 17 11  1  0
M  END
>  <zinc_id>  (251) 
ZINC000013472716

>  <ortholog_name>  (251) 
DRTS_PLAFK

>  <gene_name>  (251) 
DRTS_PLAFK

>  <affinity>  (251) 
9.10

>  <chembldocid>  (251) 
16871

>  <title>  (251) 
None

>  <reference.pubmed_id>  (251) 
11881993

>  <reference.doi>  (251) 
None

>  <reference.chembl_id>  (251) 
CHEMBL1135602

>  <reference.journal>  (251) 
J. Med. Chem.

>  <reference.year>  (251) 
2002

$$$$

     RDKit          3D

 17 18  0  0  0  0  0  0  0  0999 V2000
   -1.2234    2.5101    1.4780 C   0  0  0  0  0  0  0  0  0  0  0  0
   -1.5179    1.9887    0.1018 C   0  0  0  0  0  0  0  0  0  0  0  0
   -1.6377    0.4940    0.0612 C   0  0  0  0  0  0  0  0  0  0  0  0
   -2.8516   -0.0932   -0.0116 N   0  0  0  0  0  0  0  0  0  0  0  0
   -3.0310   -1.4244   -0.0404 C   0  0  0  0  0  0  0  0  0  0  0  0
   -4.3148   -2.0254   -0.1195 N   0  0  0  0  0  0  0  0  0  0  0  0
   -1.8943   -2.1796    0.0104 N   0  0  0  0  0  0  0  0  0  0  0  0
   -0.6641   -1.6476    0.0839 C   0  0  0  0  0  0  0  0  0  0  0  0
    0.5144   -2.4308    0.1432 N   0  0  0  0  0  0  0  0  0  0  0  0
   -0.4911   -0.2486    0.1103 C   0  0  0  0  0  0  0  0  0  0  0  0
    0.8510    0.3117    0.1484 C   0  0  0  0  0  0  0  0  0  0  0  0
    1.4082    1.0205    1.1730 C   0  0  0  0  0  0  0  0  0  0  0  0
    2.6954    1.5188    1.1816 C   0  0  0  0  0  0  0  0  0  0  0  0
    3.4638    1.2671    0.0535 C   0  0  0  0  0  0  0  0  0  0  0  0
    2.9708    0.5645   -1.0083 C   0  0  0  0  0  0  0  0  0  0  0  0
    4.0414    0.2835   -2.3967 Cl  0  0  0  0  0  0  0  0  0  0  0  0
    1.6809    0.0907   -0.9689 C   0  0  0  0  0  0  0  0  0  0  0  0
  1  2  1  0
  2  3  1  0
  3  4  2  0
  4  5  1  0
  5  6  1  0
  5  7  2  0
  7  8  1  0
  8  9  1  0
  8 10  2  0
 10 11  1  0
 11 12  2  0
 12 13  1  0
 13 14  2  0
 14 15  1  0
 15 16  1  0
 15 17  2  0
 10  3  1  0
 17 11  1  0
M  END
>  <zinc_id>  (252) 
ZINC000013472716

>  <ortholog_name>  (252) 
DRTS_PLAFK

>  <gene_name>  (252) 
DRTS_PLAFK

>  <affinity>  (252) 
9.10

>  <chembldocid>  (252) 
17662

>  <title>  (252) 
None

>  <reference.pubmed_id>  (252) 
14736247

>  <reference.doi>  (252) 
None

>  <reference.chembl_id>  (252) 
CHEMBL1138835

>  <reference.journal>  (252) 
J. Med. Chem.

>  <reference.year>  (252) 
2004

$$$$

     RDKit          3D

 17 18  0  0  0  0  0  0  0  0999 V2000
   -1.2234    2.5101    1.4780 C   0  0  0  0  0  0  0  0  0  0  0  0
   -1.5179    1.9887    0.1018 C   0  0  0  0  0  0  0  0  0  0  0  0
   -1.6377    0.4940    0.0612 C   0  0  0  0  0  0  0  0  0  0  0  0
   -2.8516   -0.0932   -0.0116 N   0  0  0  0  0  0  0  0  0  0  0  0
   -3.0310   -1.4244   -0.0404 C   0  0  0  0  0  0  0  0  0  0  0  0
   -4.3148   -2.0254   -0.1195 N   0  0  0  0  0  0  0  0  0  0  0  0
   -1.8943   -2.1796    0.0104 N   0  0  0  0  0  0  0  0  0  0  0  0
   -0.6641   -1.6476    0.0839 C   0  0  0  0  0  0  0  0  0  0  0  0
    0.5144   -2.4308    0.1432 N   0  0  0  0  0  0  0  0  0  0  0  0
   -0.4911   -0.2486    0.1103 C   0  0  0  0  0  0  0  0  0  0  0  0
    0.8510    0.3117    0.1484 C   0  0  0  0  0  0  0  0  0  0  0  0
    1.4082    1.0205    1.1730 C   0  0  0  0  0  0  0  0  0  0  0  0
    2.6954    1.5188    1.1816 C   0  0  0  0  0  0  0  0  0  0  0  0
    3.4638    1.2671    0.0535 C   0  0  0  0  0  0  0  0  0  0  0  0
    2.9708    0.5645   -1.0083 C   0  0  0  0  0  0  0  0  0  0  0  0
    4.0414    0.2835   -2.3967 Cl  0  0  0  0  0  0  0  0  0  0  0  0
    1.6809    0.0907   -0.9689 C   0  0  0  0  0  0  0  0  0  0  0  0
  1  2  1  0
  2  3  1  0
  3  4  2  0
  4  5  1  0
  5  6  1  0
  5  7  2  0
  7  8  1  0
  8  9  1  0
  8 10  2  0
 10 11  1  0
 11 12  2  0
 12 13  1  0
 13 14  2  0
 14 15  1  0
 15 16  1  0
 15 17  2  0
 10  3  1  0
 17 11  1  0
M  END
>  <zinc_id>  (253) 
ZINC000013472716

>  <ortholog_name>  (253) 
DRTS_PLAFK

>  <gene_name>  (253) 
DRTS_PLAFK

>  <affinity>  (253) 
8.85

>  <chembldocid>  (253) 
16871

>  <title>  (253) 
None

>  <reference.pubmed_id>  (253) 
11881993

>  <reference.doi>  (253) 
None

>  <reference.chembl_id>  (253) 
CHEMBL1135602

>  <reference.journal>  (253) 
J. Med. Chem.

>  <reference.year>  (253) 
2002

$$$$

     RDKit          3D

 17 18  0  0  0  0  0  0  0  0999 V2000
   -1.2234    2.5101    1.4780 C   0  0  0  0  0  0  0  0  0  0  0  0
   -1.5179    1.9887    0.1018 C   0  0  0  0  0  0  0  0  0  0  0  0
   -1.6377    0.4940    0.0612 C   0  0  0  0  0  0  0  0  0  0  0  0
   -2.8516   -0.0932   -0.0116 N   0  0  0  0  0  0  0  0  0  0  0  0
   -3.0310   -1.4244   -0.0404 C   0  0  0  0  0  0  0  0  0  0  0  0
   -4.3148   -2.0254   -0.1195 N   0  0  0  0  0  0  0  0  0  0  0  0
   -1.8943   -2.1796    0.0104 N   0  0  0  0  0  0  0  0  0  0  0  0
   -0.6641   -1.6476    0.0839 C   0  0  0  0  0  0  0  0  0  0  0  0
    0.5144   -2.4308    0.1432 N   0  0  0  0  0  0  0  0  0  0  0  0
   -0.4911   -0.2486    0.1103 C   0  0  0  0  0  0  0  0  0  0  0  0
    0.8510    0.3117    0.1484 C   0  0  0  0  0  0  0  0  0  0  0  0
    1.4082    1.0205    1.1730 C   0  0  0  0  0  0  0  0  0  0  0  0
    2.6954    1.5188    1.1816 C   0  0  0  0  0  0  0  0  0  0  0  0
    3.4638    1.2671    0.0535 C   0  0  0  0  0  0  0  0  0  0  0  0
    2.9708    0.5645   -1.0083 C   0  0  0  0  0  0  0  0  0  0  0  0
    4.0414    0.2835   -2.3967 Cl  0  0  0  0  0  0  0  0  0  0  0  0
    1.6809    0.0907   -0.9689 C   0  0  0  0  0  0  0  0  0  0  0  0
  1  2  1  0
  2  3  1  0
  3  4  2  0
  4  5  1  0
  5  6  1  0
  5  7  2  0
  7  8  1  0
  8  9  1  0
  8 10  2  0
 10 11  1  0
 11 12  2  0
 12 13  1  0
 13 14  2  0
 14 15  1  0
 15 16  1  0
 15 17  2  0
 10  3  1  0
 17 11  1  0
M  END
>  <zinc_id>  (254) 
ZINC000013472716

>  <ortholog_name>  (254) 
DRTS_PLAFK

>  <gene_name>  (254) 
DRTS_PLAFK

>  <affinity>  (254) 
8.80

>  <chembldocid>  (254) 
16871

>  <title>  (254) 
None

>  <reference.pubmed_id>  (254) 
11881993

>  <reference.doi>  (254) 
None

>  <reference.chembl_id>  (254) 
CHEMBL1135602

>  <reference.journal>  (254) 
J. Med. Chem.

>  <reference.year>  (254) 
2002

$$$$

     RDKit          3D

 17 18  0  0  0  0  0  0  0  0999 V2000
   -1.2234    2.5101    1.4780 C   0  0  0  0  0  0  0  0  0  0  0  0
   -1.5179    1.9887    0.1018 C   0  0  0  0  0  0  0  0  0  0  0  0
   -1.6377    0.4940    0.0612 C   0  0  0  0  0  0  0  0  0  0  0  0
   -2.8516   -0.0932   -0.0116 N   0  0  0  0  0  0  0  0  0  0  0  0
   -3.0310   -1.4244   -0.0404 C   0  0  0  0  0  0  0  0  0  0  0  0
   -4.3148   -2.0254   -0.1195 N   0  0  0  0  0  0  0  0  0  0  0  0
   -1.8943   -2.1796    0.0104 N   0  0  0  0  0  0  0  0  0  0  0  0
   -0.6641   -1.6476    0.0839 C   0  0  0  0  0  0  0  0  0  0  0  0
    0.5144   -2.4308    0.1432 N   0  0  0  0  0  0  0  0  0  0  0  0
   -0.4911   -0.2486    0.1103 C   0  0  0  0  0  0  0  0  0  0  0  0
    0.8510    0.3117    0.1484 C   0  0  0  0  0  0  0  0  0  0  0  0
    1.4082    1.0205    1.1730 C   0  0  0  0  0  0  0  0  0  0  0  0
    2.6954    1.5188    1.1816 C   0  0  0  0  0  0  0  0  0  0  0  0
    3.4638    1.2671    0.0535 C   0  0  0  0  0  0  0  0  0  0  0  0
    2.9708    0.5645   -1.0083 C   0  0  0  0  0  0  0  0  0  0  0  0
    4.0414    0.2835   -2.3967 Cl  0  0  0  0  0  0  0  0  0  0  0  0
    1.6809    0.0907   -0.9689 C   0  0  0  0  0  0  0  0  0  0  0  0
  1  2  1  0
  2  3  1  0
  3  4  2  0
  4  5  1  0
  5  6  1  0
  5  7  2  0
  7  8  1  0
  8  9  1  0
  8 10  2  0
 10 11  1  0
 11 12  2  0
 12 13  1  0
 13 14  2  0
 14 15  1  0
 15 16  1  0
 15 17  2  0
 10  3  1  0
 17 11  1  0
M  END
>  <zinc_id>  (255) 
ZINC000013472716

>  <ortholog_name>  (255) 
DRTS_PLAFK

>  <gene_name>  (255) 
DRTS_PLAFK

>  <affinity>  (255) 
7.90

>  <chembldocid>  (255) 
14888

>  <title>  (255) 
None

>  <reference.pubmed_id>  (255) 
9554869

>  <reference.doi>  (255) 
None

>  <reference.chembl_id>  (255) 
CHEMBL1131602

>  <reference.journal>  (255) 
J. Med. Chem.

>  <reference.year>  (255) 
1998

$$$$

     RDKit          3D

 17 18  0  0  0  0  0  0  0  0999 V2000
   -1.2234    2.5101    1.4780 C   0  0  0  0  0  0  0  0  0  0  0  0
   -1.5179    1.9887    0.1018 C   0  0  0  0  0  0  0  0  0  0  0  0
   -1.6377    0.4940    0.0612 C   0  0  0  0  0  0  0  0  0  0  0  0
   -2.8516   -0.0932   -0.0116 N   0  0  0  0  0  0  0  0  0  0  0  0
   -3.0310   -1.4244   -0.0404 C   0  0  0  0  0  0  0  0  0  0  0  0
   -4.3148   -2.0254   -0.1195 N   0  0  0  0  0  0  0  0  0  0  0  0
   -1.8943   -2.1796    0.0104 N   0  0  0  0  0  0  0  0  0  0  0  0
   -0.6641   -1.6476    0.0839 C   0  0  0  0  0  0  0  0  0  0  0  0
    0.5144   -2.4308    0.1432 N   0  0  0  0  0  0  0  0  0  0  0  0
   -0.4911   -0.2486    0.1103 C   0  0  0  0  0  0  0  0  0  0  0  0
    0.8510    0.3117    0.1484 C   0  0  0  0  0  0  0  0  0  0  0  0
    1.4082    1.0205    1.1730 C   0  0  0  0  0  0  0  0  0  0  0  0
    2.6954    1.5188    1.1816 C   0  0  0  0  0  0  0  0  0  0  0  0
    3.4638    1.2671    0.0535 C   0  0  0  0  0  0  0  0  0  0  0  0
    2.9708    0.5645   -1.0083 C   0  0  0  0  0  0  0  0  0  0  0  0
    4.0414    0.2835   -2.3967 Cl  0  0  0  0  0  0  0  0  0  0  0  0
    1.6809    0.0907   -0.9689 C   0  0  0  0  0  0  0  0  0  0  0  0
  1  2  1  0
  2  3  1  0
  3  4  2  0
  4  5  1  0
  5  6  1  0
  5  7  2  0
  7  8  1  0
  8  9  1  0
  8 10  2  0
 10 11  1  0
 11 12  2  0
 12 13  1  0
 13 14  2  0
 14 15  1  0
 15 16  1  0
 15 17  2  0
 10  3  1  0
 17 11  1  0
M  END
>  <zinc_id>  (256) 
ZINC000013472716

>  <ortholog_name>  (256) 
DRTS_PLAFK

>  <gene_name>  (256) 
DRTS_PLAFK

>  <affinity>  (256) 
5.89

>  <chembldocid>  (256) 
16871

>  <title>  (256) 
None

>  <reference.pubmed_id>  (256) 
11881993

>  <reference.doi>  (256) 
None

>  <reference.chembl_id>  (256) 
CHEMBL1135602

>  <reference.journal>  (256) 
J. Med. Chem.

>  <reference.year>  (256) 
2002

$$$$

     RDKit          3D

 17 18  0  0  0  0  0  0  0  0999 V2000
   -1.2234    2.5101    1.4780 C   0  0  0  0  0  0  0  0  0  0  0  0
   -1.5179    1.9887    0.1018 C   0  0  0  0  0  0  0  0  0  0  0  0
   -1.6377    0.4940    0.0612 C   0  0  0  0  0  0  0  0  0  0  0  0
   -2.8516   -0.0932   -0.0116 N   0  0  0  0  0  0  0  0  0  0  0  0
   -3.0310   -1.4244   -0.0404 C   0  0  0  0  0  0  0  0  0  0  0  0
   -4.3148   -2.0254   -0.1195 N   0  0  0  0  0  0  0  0  0  0  0  0
   -1.8943   -2.1796    0.0104 N   0  0  0  0  0  0  0  0  0  0  0  0
   -0.6641   -1.6476    0.0839 C   0  0  0  0  0  0  0  0  0  0  0  0
    0.5144   -2.4308    0.1432 N   0  0  0  0  0  0  0  0  0  0  0  0
   -0.4911   -0.2486    0.1103 C   0  0  0  0  0  0  0  0  0  0  0  0
    0.8510    0.3117    0.1484 C   0  0  0  0  0  0  0  0  0  0  0  0
    1.4082    1.0205    1.1730 C   0  0  0  0  0  0  0  0  0  0  0  0
    2.6954    1.5188    1.1816 C   0  0  0  0  0  0  0  0  0  0  0  0
    3.4638    1.2671    0.0535 C   0  0  0  0  0  0  0  0  0  0  0  0
    2.9708    0.5645   -1.0083 C   0  0  0  0  0  0  0  0  0  0  0  0
    4.0414    0.2835   -2.3967 Cl  0  0  0  0  0  0  0  0  0  0  0  0
    1.6809    0.0907   -0.9689 C   0  0  0  0  0  0  0  0  0  0  0  0
  1  2  1  0
  2  3  1  0
  3  4  2  0
  4  5  1  0
  5  6  1  0
  5  7  2  0
  7  8  1  0
  8  9  1  0
  8 10  2  0
 10 11  1  0
 11 12  2  0
 12 13  1  0
 13 14  2  0
 14 15  1  0
 15 16  1  0
 15 17  2  0
 10  3  1  0
 17 11  1  0
M  END
>  <zinc_id>  (257) 
ZINC000013472716

>  <ortholog_name>  (257) 
DRTS_PLAFK

>  <gene_name>  (257) 
DRTS_PLAFK

>  <affinity>  (257) 
8.68

>  <chembldocid>  (257) 
17662

>  <title>  (257) 
None

>  <reference.pubmed_id>  (257) 
14736247

>  <reference.doi>  (257) 
None

>  <reference.chembl_id>  (257) 
CHEMBL1138835

>  <reference.journal>  (257) 
J. Med. Chem.

>  <reference.year>  (257) 
2004

$$$$

     RDKit          3D

 17 18  0  0  0  0  0  0  0  0999 V2000
   -1.2234    2.5101    1.4780 C   0  0  0  0  0  0  0  0  0  0  0  0
   -1.5179    1.9887    0.1018 C   0  0  0  0  0  0  0  0  0  0  0  0
   -1.6377    0.4940    0.0612 C   0  0  0  0  0  0  0  0  0  0  0  0
   -2.8516   -0.0932   -0.0116 N   0  0  0  0  0  0  0  0  0  0  0  0
   -3.0310   -1.4244   -0.0404 C   0  0  0  0  0  0  0  0  0  0  0  0
   -4.3148   -2.0254   -0.1195 N   0  0  0  0  0  0  0  0  0  0  0  0
   -1.8943   -2.1796    0.0104 N   0  0  0  0  0  0  0  0  0  0  0  0
   -0.6641   -1.6476    0.0839 C   0  0  0  0  0  0  0  0  0  0  0  0
    0.5144   -2.4308    0.1432 N   0  0  0  0  0  0  0  0  0  0  0  0
   -0.4911   -0.2486    0.1103 C   0  0  0  0  0  0  0  0  0  0  0  0
    0.8510    0.3117    0.1484 C   0  0  0  0  0  0  0  0  0  0  0  0
    1.4082    1.0205    1.1730 C   0  0  0  0  0  0  0  0  0  0  0  0
    2.6954    1.5188    1.1816 C   0  0  0  0  0  0  0  0  0  0  0  0
    3.4638    1.2671    0.0535 C   0  0  0  0  0  0  0  0  0  0  0  0
    2.9708    0.5645   -1.0083 C   0  0  0  0  0  0  0  0  0  0  0  0
    4.0414    0.2835   -2.3967 Cl  0  0  0  0  0  0  0  0  0  0  0  0
    1.6809    0.0907   -0.9689 C   0  0  0  0  0  0  0  0  0  0  0  0
  1  2  1  0
  2  3  1  0
  3  4  2  0
  4  5  1  0
  5  6  1  0
  5  7  2  0
  7  8  1  0
  8  9  1  0
  8 10  2  0
 10 11  1  0
 11 12  2  0
 12 13  1  0
 13 14  2  0
 14 15  1  0
 15 16  1  0
 15 17  2  0
 10  3  1  0
 17 11  1  0
M  END
>  <zinc_id>  (258) 
ZINC000013472716

>  <ortholog_name>  (258) 
DRTS_PLAFK

>  <gene_name>  (258) 
DRTS_PLAFK

>  <affinity>  (258) 
8.62

>  <chembldocid>  (258) 
14888

>  <title>  (258) 
None

>  <reference.pubmed_id>  (258) 
9554869

>  <reference.doi>  (258) 
None

>  <reference.chembl_id>  (258) 
CHEMBL1131602

>  <reference.journal>  (258) 
J. Med. Chem.

>  <reference.year>  (258) 
1998

$$$$

     RDKit          3D

 17 18  0  0  0  0  0  0  0  0999 V2000
   -1.2234    2.5101    1.4780 C   0  0  0  0  0  0  0  0  0  0  0  0
   -1.5179    1.9887    0.1018 C   0  0  0  0  0  0  0  0  0  0  0  0
   -1.6377    0.4940    0.0612 C   0  0  0  0  0  0  0  0  0  0  0  0
   -2.8516   -0.0932   -0.0116 N   0  0  0  0  0  0  0  0  0  0  0  0
   -3.0310   -1.4244   -0.0404 C   0  0  0  0  0  0  0  0  0  0  0  0
   -4.3148   -2.0254   -0.1195 N   0  0  0  0  0  0  0  0  0  0  0  0
   -1.8943   -2.1796    0.0104 N   0  0  0  0  0  0  0  0  0  0  0  0
   -0.6641   -1.6476    0.0839 C   0  0  0  0  0  0  0  0  0  0  0  0
    0.5144   -2.4308    0.1432 N   0  0  0  0  0  0  0  0  0  0  0  0
   -0.4911   -0.2486    0.1103 C   0  0  0  0  0  0  0  0  0  0  0  0
    0.8510    0.3117    0.1484 C   0  0  0  0  0  0  0  0  0  0  0  0
    1.4082    1.0205    1.1730 C   0  0  0  0  0  0  0  0  0  0  0  0
    2.6954    1.5188    1.1816 C   0  0  0  0  0  0  0  0  0  0  0  0
    3.4638    1.2671    0.0535 C   0  0  0  0  0  0  0  0  0  0  0  0
    2.9708    0.5645   -1.0083 C   0  0  0  0  0  0  0  0  0  0  0  0
    4.0414    0.2835   -2.3967 Cl  0  0  0  0  0  0  0  0  0  0  0  0
    1.6809    0.0907   -0.9689 C   0  0  0  0  0  0  0  0  0  0  0  0
  1  2  1  0
  2  3  1  0
  3  4  2  0
  4  5  1  0
  5  6  1  0
  5  7  2  0
  7  8  1  0
  8  9  1  0
  8 10  2  0
 10 11  1  0
 11 12  2  0
 12 13  1  0
 13 14  2  0
 14 15  1  0
 15 16  1  0
 15 17  2  0
 10  3  1  0
 17 11  1  0
M  END
>  <zinc_id>  (259) 
ZINC000013472716

>  <ortholog_name>  (259) 
DRTS_PLAFK

>  <gene_name>  (259) 
DRTS_PLAFK

>  <affinity>  (259) 
8.57

>  <chembldocid>  (259) 
14888

>  <title>  (259) 
None

>  <reference.pubmed_id>  (259) 
9554869

>  <reference.doi>  (259) 
None

>  <reference.chembl_id>  (259) 
CHEMBL1131602

>  <reference.journal>  (259) 
J. Med. Chem.

>  <reference.year>  (259) 
1998

$$$$

     RDKit          3D

 17 18  0  0  0  0  0  0  0  0999 V2000
   -1.2234    2.5101    1.4780 C   0  0  0  0  0  0  0  0  0  0  0  0
   -1.5179    1.9887    0.1018 C   0  0  0  0  0  0  0  0  0  0  0  0
   -1.6377    0.4940    0.0612 C   0  0  0  0  0  0  0  0  0  0  0  0
   -2.8516   -0.0932   -0.0116 N   0  0  0  0  0  0  0  0  0  0  0  0
   -3.0310   -1.4244   -0.0404 C   0  0  0  0  0  0  0  0  0  0  0  0
   -4.3148   -2.0254   -0.1195 N   0  0  0  0  0  0  0  0  0  0  0  0
   -1.8943   -2.1796    0.0104 N   0  0  0  0  0  0  0  0  0  0  0  0
   -0.6641   -1.6476    0.0839 C   0  0  0  0  0  0  0  0  0  0  0  0
    0.5144   -2.4308    0.1432 N   0  0  0  0  0  0  0  0  0  0  0  0
   -0.4911   -0.2486    0.1103 C   0  0  0  0  0  0  0  0  0  0  0  0
    0.8510    0.3117    0.1484 C   0  0  0  0  0  0  0  0  0  0  0  0
    1.4082    1.0205    1.1730 C   0  0  0  0  0  0  0  0  0  0  0  0
    2.6954    1.5188    1.1816 C   0  0  0  0  0  0  0  0  0  0  0  0
    3.4638    1.2671    0.0535 C   0  0  0  0  0  0  0  0  0  0  0  0
    2.9708    0.5645   -1.0083 C   0  0  0  0  0  0  0  0  0  0  0  0
    4.0414    0.2835   -2.3967 Cl  0  0  0  0  0  0  0  0  0  0  0  0
    1.6809    0.0907   -0.9689 C   0  0  0  0  0  0  0  0  0  0  0  0
  1  2  1  0
  2  3  1  0
  3  4  2  0
  4  5  1  0
  5  6  1  0
  5  7  2  0
  7  8  1  0
  8  9  1  0
  8 10  2  0
 10 11  1  0
 11 12  2  0
 12 13  1  0
 13 14  2  0
 14 15  1  0
 15 16  1  0
 15 17  2  0
 10  3  1  0
 17 11  1  0
M  END
>  <zinc_id>  (260) 
ZINC000013472716

>  <ortholog_name>  (260) 
DRTS_PLAFK

>  <gene_name>  (260) 
DRTS_PLAFK

>  <affinity>  (260) 
8.57

>  <chembldocid>  (260) 
17662

>  <title>  (260) 
None

>  <reference.pubmed_id>  (260) 
14736247

>  <reference.doi>  (260) 
None

>  <reference.chembl_id>  (260) 
CHEMBL1138835

>  <reference.journal>  (260) 
J. Med. Chem.

>  <reference.year>  (260) 
2004

$$$$

     RDKit          3D

 17 18  0  0  0  0  0  0  0  0999 V2000
   -1.2234    2.5101    1.4780 C   0  0  0  0  0  0  0  0  0  0  0  0
   -1.5179    1.9887    0.1018 C   0  0  0  0  0  0  0  0  0  0  0  0
   -1.6377    0.4940    0.0612 C   0  0  0  0  0  0  0  0  0  0  0  0
   -2.8516   -0.0932   -0.0116 N   0  0  0  0  0  0  0  0  0  0  0  0
   -3.0310   -1.4244   -0.0404 C   0  0  0  0  0  0  0  0  0  0  0  0
   -4.3148   -2.0254   -0.1195 N   0  0  0  0  0  0  0  0  0  0  0  0
   -1.8943   -2.1796    0.0104 N   0  0  0  0  0  0  0  0  0  0  0  0
   -0.6641   -1.6476    0.0839 C   0  0  0  0  0  0  0  0  0  0  0  0
    0.5144   -2.4308    0.1432 N   0  0  0  0  0  0  0  0  0  0  0  0
   -0.4911   -0.2486    0.1103 C   0  0  0  0  0  0  0  0  0  0  0  0
    0.8510    0.3117    0.1484 C   0  0  0  0  0  0  0  0  0  0  0  0
    1.4082    1.0205    1.1730 C   0  0  0  0  0  0  0  0  0  0  0  0
    2.6954    1.5188    1.1816 C   0  0  0  0  0  0  0  0  0  0  0  0
    3.4638    1.2671    0.0535 C   0  0  0  0  0  0  0  0  0  0  0  0
    2.9708    0.5645   -1.0083 C   0  0  0  0  0  0  0  0  0  0  0  0
    4.0414    0.2835   -2.3967 Cl  0  0  0  0  0  0  0  0  0  0  0  0
    1.6809    0.0907   -0.9689 C   0  0  0  0  0  0  0  0  0  0  0  0
  1  2  1  0
  2  3  1  0
  3  4  2  0
  4  5  1  0
  5  6  1  0
  5  7  2  0
  7  8  1  0
  8  9  1  0
  8 10  2  0
 10 11  1  0
 11 12  2  0
 12 13  1  0
 13 14  2  0
 14 15  1  0
 15 16  1  0
 15 17  2  0
 10  3  1  0
 17 11  1  0
M  END
>  <zinc_id>  (261) 
ZINC000013472716

>  <ortholog_name>  (261) 
DRTS_PLAFK

>  <gene_name>  (261) 
DRTS_PLAFK

>  <affinity>  (261) 
5.60

>  <chembldocid>  (261) 
17662

>  <title>  (261) 
None

>  <reference.pubmed_id>  (261) 
14736247

>  <reference.doi>  (261) 
None

>  <reference.chembl_id>  (261) 
CHEMBL1138835

>  <reference.journal>  (261) 
J. Med. Chem.

>  <reference.year>  (261) 
2004

$$$$

     RDKit          3D

 17 18  0  0  0  0  0  0  0  0999 V2000
   -1.2234    2.5101    1.4780 C   0  0  0  0  0  0  0  0  0  0  0  0
   -1.5179    1.9887    0.1018 C   0  0  0  0  0  0  0  0  0  0  0  0
   -1.6377    0.4940    0.0612 C   0  0  0  0  0  0  0  0  0  0  0  0
   -2.8516   -0.0932   -0.0116 N   0  0  0  0  0  0  0  0  0  0  0  0
   -3.0310   -1.4244   -0.0404 C   0  0  0  0  0  0  0  0  0  0  0  0
   -4.3148   -2.0254   -0.1195 N   0  0  0  0  0  0  0  0  0  0  0  0
   -1.8943   -2.1796    0.0104 N   0  0  0  0  0  0  0  0  0  0  0  0
   -0.6641   -1.6476    0.0839 C   0  0  0  0  0  0  0  0  0  0  0  0
    0.5144   -2.4308    0.1432 N   0  0  0  0  0  0  0  0  0  0  0  0
   -0.4911   -0.2486    0.1103 C   0  0  0  0  0  0  0  0  0  0  0  0
    0.8510    0.3117    0.1484 C   0  0  0  0  0  0  0  0  0  0  0  0
    1.4082    1.0205    1.1730 C   0  0  0  0  0  0  0  0  0  0  0  0
    2.6954    1.5188    1.1816 C   0  0  0  0  0  0  0  0  0  0  0  0
    3.4638    1.2671    0.0535 C   0  0  0  0  0  0  0  0  0  0  0  0
    2.9708    0.5645   -1.0083 C   0  0  0  0  0  0  0  0  0  0  0  0
    4.0414    0.2835   -2.3967 Cl  0  0  0  0  0  0  0  0  0  0  0  0
    1.6809    0.0907   -0.9689 C   0  0  0  0  0  0  0  0  0  0  0  0
  1  2  1  0
  2  3  1  0
  3  4  2  0
  4  5  1  0
  5  6  1  0
  5  7  2  0
  7  8  1  0
  8  9  1  0
  8 10  2  0
 10 11  1  0
 11 12  2  0
 12 13  1  0
 13 14  2  0
 14 15  1  0
 15 16  1  0
 15 17  2  0
 10  3  1  0
 17 11  1  0
M  END
>  <zinc_id>  (262) 
ZINC000013472716

>  <ortholog_name>  (262) 
DRTS_PLAFK

>  <gene_name>  (262) 
DRTS_PLAFK

>  <affinity>  (262) 
8.48

>  <chembldocid>  (262) 
17662

>  <title>  (262) 
None

>  <reference.pubmed_id>  (262) 
14736247

>  <reference.doi>  (262) 
None

>  <reference.chembl_id>  (262) 
CHEMBL1138835

>  <reference.journal>  (262) 
J. Med. Chem.

>  <reference.year>  (262) 
2004

$$$$

     RDKit          3D

 17 18  0  0  0  0  0  0  0  0999 V2000
   -1.2234    2.5101    1.4780 C   0  0  0  0  0  0  0  0  0  0  0  0
   -1.5179    1.9887    0.1018 C   0  0  0  0  0  0  0  0  0  0  0  0
   -1.6377    0.4940    0.0612 C   0  0  0  0  0  0  0  0  0  0  0  0
   -2.8516   -0.0932   -0.0116 N   0  0  0  0  0  0  0  0  0  0  0  0
   -3.0310   -1.4244   -0.0404 C   0  0  0  0  0  0  0  0  0  0  0  0
   -4.3148   -2.0254   -0.1195 N   0  0  0  0  0  0  0  0  0  0  0  0
   -1.8943   -2.1796    0.0104 N   0  0  0  0  0  0  0  0  0  0  0  0
   -0.6641   -1.6476    0.0839 C   0  0  0  0  0  0  0  0  0  0  0  0
    0.5144   -2.4308    0.1432 N   0  0  0  0  0  0  0  0  0  0  0  0
   -0.4911   -0.2486    0.1103 C   0  0  0  0  0  0  0  0  0  0  0  0
    0.8510    0.3117    0.1484 C   0  0  0  0  0  0  0  0  0  0  0  0
    1.4082    1.0205    1.1730 C   0  0  0  0  0  0  0  0  0  0  0  0
    2.6954    1.5188    1.1816 C   0  0  0  0  0  0  0  0  0  0  0  0
    3.4638    1.2671    0.0535 C   0  0  0  0  0  0  0  0  0  0  0  0
    2.9708    0.5645   -1.0083 C   0  0  0  0  0  0  0  0  0  0  0  0
    4.0414    0.2835   -2.3967 Cl  0  0  0  0  0  0  0  0  0  0  0  0
    1.6809    0.0907   -0.9689 C   0  0  0  0  0  0  0  0  0  0  0  0
  1  2  1  0
  2  3  1  0
  3  4  2  0
  4  5  1  0
  5  6  1  0
  5  7  2  0
  7  8  1  0
  8  9  1  0
  8 10  2  0
 10 11  1  0
 11 12  2  0
 12 13  1  0
 13 14  2  0
 14 15  1  0
 15 16  1  0
 15 17  2  0
 10  3  1  0
 17 11  1  0
M  END
>  <zinc_id>  (263) 
ZINC000013472716

>  <ortholog_name>  (263) 
DRTS_PLAFK

>  <gene_name>  (263) 
DRTS_PLAFK

>  <affinity>  (263) 
5.41

>  <chembldocid>  (263) 
17662

>  <title>  (263) 
None

>  <reference.pubmed_id>  (263) 
14736247

>  <reference.doi>  (263) 
None

>  <reference.chembl_id>  (263) 
CHEMBL1138835

>  <reference.journal>  (263) 
J. Med. Chem.

>  <reference.year>  (263) 
2004

$$$$

     RDKit          3D

 17 18  0  0  0  0  0  0  0  0999 V2000
   -1.2234    2.5101    1.4780 C   0  0  0  0  0  0  0  0  0  0  0  0
   -1.5179    1.9887    0.1018 C   0  0  0  0  0  0  0  0  0  0  0  0
   -1.6377    0.4940    0.0612 C   0  0  0  0  0  0  0  0  0  0  0  0
   -2.8516   -0.0932   -0.0116 N   0  0  0  0  0  0  0  0  0  0  0  0
   -3.0310   -1.4244   -0.0404 C   0  0  0  0  0  0  0  0  0  0  0  0
   -4.3148   -2.0254   -0.1195 N   0  0  0  0  0  0  0  0  0  0  0  0
   -1.8943   -2.1796    0.0104 N   0  0  0  0  0  0  0  0  0  0  0  0
   -0.6641   -1.6476    0.0839 C   0  0  0  0  0  0  0  0  0  0  0  0
    0.5144   -2.4308    0.1432 N   0  0  0  0  0  0  0  0  0  0  0  0
   -0.4911   -0.2486    0.1103 C   0  0  0  0  0  0  0  0  0  0  0  0
    0.8510    0.3117    0.1484 C   0  0  0  0  0  0  0  0  0  0  0  0
    1.4082    1.0205    1.1730 C   0  0  0  0  0  0  0  0  0  0  0  0
    2.6954    1.5188    1.1816 C   0  0  0  0  0  0  0  0  0  0  0  0
    3.4638    1.2671    0.0535 C   0  0  0  0  0  0  0  0  0  0  0  0
    2.9708    0.5645   -1.0083 C   0  0  0  0  0  0  0  0  0  0  0  0
    4.0414    0.2835   -2.3967 Cl  0  0  0  0  0  0  0  0  0  0  0  0
    1.6809    0.0907   -0.9689 C   0  0  0  0  0  0  0  0  0  0  0  0
  1  2  1  0
  2  3  1  0
  3  4  2  0
  4  5  1  0
  5  6  1  0
  5  7  2  0
  7  8  1  0
  8  9  1  0
  8 10  2  0
 10 11  1  0
 11 12  2  0
 12 13  1  0
 13 14  2  0
 14 15  1  0
 15 16  1  0
 15 17  2  0
 10  3  1  0
 17 11  1  0
M  END
>  <zinc_id>  (264) 
ZINC000013472716

>  <ortholog_name>  (264) 
DRTS_PLAFK

>  <gene_name>  (264) 
DRTS_PLAFK

>  <affinity>  (264) 
6.38

>  <chembldocid>  (264) 
17662

>  <title>  (264) 
None

>  <reference.pubmed_id>  (264) 
14736247

>  <reference.doi>  (264) 
None

>  <reference.chembl_id>  (264) 
CHEMBL1138835

>  <reference.journal>  (264) 
J. Med. Chem.

>  <reference.year>  (264) 
2004

$$$$

     RDKit          3D

 17 18  0  0  0  0  0  0  0  0999 V2000
   -1.2234    2.5101    1.4780 C   0  0  0  0  0  0  0  0  0  0  0  0
   -1.5179    1.9887    0.1018 C   0  0  0  0  0  0  0  0  0  0  0  0
   -1.6377    0.4940    0.0612 C   0  0  0  0  0  0  0  0  0  0  0  0
   -2.8516   -0.0932   -0.0116 N   0  0  0  0  0  0  0  0  0  0  0  0
   -3.0310   -1.4244   -0.0404 C   0  0  0  0  0  0  0  0  0  0  0  0
   -4.3148   -2.0254   -0.1195 N   0  0  0  0  0  0  0  0  0  0  0  0
   -1.8943   -2.1796    0.0104 N   0  0  0  0  0  0  0  0  0  0  0  0
   -0.6641   -1.6476    0.0839 C   0  0  0  0  0  0  0  0  0  0  0  0
    0.5144   -2.4308    0.1432 N   0  0  0  0  0  0  0  0  0  0  0  0
   -0.4911   -0.2486    0.1103 C   0  0  0  0  0  0  0  0  0  0  0  0
    0.8510    0.3117    0.1484 C   0  0  0  0  0  0  0  0  0  0  0  0
    1.4082    1.0205    1.1730 C   0  0  0  0  0  0  0  0  0  0  0  0
    2.6954    1.5188    1.1816 C   0  0  0  0  0  0  0  0  0  0  0  0
    3.4638    1.2671    0.0535 C   0  0  0  0  0  0  0  0  0  0  0  0
    2.9708    0.5645   -1.0083 C   0  0  0  0  0  0  0  0  0  0  0  0
    4.0414    0.2835   -2.3967 Cl  0  0  0  0  0  0  0  0  0  0  0  0
    1.6809    0.0907   -0.9689 C   0  0  0  0  0  0  0  0  0  0  0  0
  1  2  1  0
  2  3  1  0
  3  4  2  0
  4  5  1  0
  5  6  1  0
  5  7  2  0
  7  8  1  0
  8  9  1  0
  8 10  2  0
 10 11  1  0
 11 12  2  0
 12 13  1  0
 13 14  2  0
 14 15  1  0
 15 16  1  0
 15 17  2  0
 10  3  1  0
 17 11  1  0
M  END
>  <zinc_id>  (265) 
ZINC000013472716

>  <ortholog_name>  (265) 
DRTS_PLAFK

>  <gene_name>  (265) 
DRTS_PLAFK

>  <affinity>  (265) 
7.14

>  <chembldocid>  (265) 
21047

>  <title>  (265) 
None

>  <reference.pubmed_id>  (265) 
15293997

>  <reference.doi>  (265) 
None

>  <reference.chembl_id>  (265) 
CHEMBL1138679

>  <reference.journal>  (265) 
J. Med. Chem.

>  <reference.year>  (265) 
2004

$$$$

     RDKit          3D

 17 18  0  0  0  0  0  0  0  0999 V2000
   -1.2234    2.5101    1.4780 C   0  0  0  0  0  0  0  0  0  0  0  0
   -1.5179    1.9887    0.1018 C   0  0  0  0  0  0  0  0  0  0  0  0
   -1.6377    0.4940    0.0612 C   0  0  0  0  0  0  0  0  0  0  0  0
   -2.8516   -0.0932   -0.0116 N   0  0  0  0  0  0  0  0  0  0  0  0
   -3.0310   -1.4244   -0.0404 C   0  0  0  0  0  0  0  0  0  0  0  0
   -4.3148   -2.0254   -0.1195 N   0  0  0  0  0  0  0  0  0  0  0  0
   -1.8943   -2.1796    0.0104 N   0  0  0  0  0  0  0  0  0  0  0  0
   -0.6641   -1.6476    0.0839 C   0  0  0  0  0  0  0  0  0  0  0  0
    0.5144   -2.4308    0.1432 N   0  0  0  0  0  0  0  0  0  0  0  0
   -0.4911   -0.2486    0.1103 C   0  0  0  0  0  0  0  0  0  0  0  0
    0.8510    0.3117    0.1484 C   0  0  0  0  0  0  0  0  0  0  0  0
    1.4082    1.0205    1.1730 C   0  0  0  0  0  0  0  0  0  0  0  0
    2.6954    1.5188    1.1816 C   0  0  0  0  0  0  0  0  0  0  0  0
    3.4638    1.2671    0.0535 C   0  0  0  0  0  0  0  0  0  0  0  0
    2.9708    0.5645   -1.0083 C   0  0  0  0  0  0  0  0  0  0  0  0
    4.0414    0.2835   -2.3967 Cl  0  0  0  0  0  0  0  0  0  0  0  0
    1.6809    0.0907   -0.9689 C   0  0  0  0  0  0  0  0  0  0  0  0
  1  2  1  0
  2  3  1  0
  3  4  2  0
  4  5  1  0
  5  6  1  0
  5  7  2  0
  7  8  1  0
  8  9  1  0
  8 10  2  0
 10 11  1  0
 11 12  2  0
 12 13  1  0
 13 14  2  0
 14 15  1  0
 15 16  1  0
 15 17  2  0
 10  3  1  0
 17 11  1  0
M  END
>  <zinc_id>  (266) 
ZINC000013472716

>  <ortholog_name>  (266) 
DRTS_PLAFK

>  <gene_name>  (266) 
DRTS_PLAFK

>  <affinity>  (266) 
5.04

>  <chembldocid>  (266) 
17662

>  <title>  (266) 
None

>  <reference.pubmed_id>  (266) 
14736247

>  <reference.doi>  (266) 
None

>  <reference.chembl_id>  (266) 
CHEMBL1138835

>  <reference.journal>  (266) 
J. Med. Chem.

>  <reference.year>  (266) 
2004

$$$$

     RDKit          3D

 19 21  0  0  0  0  0  0  0  0999 V2000
    3.0081    2.8438    0.1338 C   0  0  0  0  0  0  0  0  0  0  0  0
    1.6845    2.1225    0.2395 C   0  0  0  0  0  0  0  0  0  0  0  0
    1.9810    0.6688    0.1411 C   0  0  0  0  0  0  0  0  0  0  0  0
    3.2484    0.1907    0.3778 N   0  0  0  0  0  0  0  0  0  0  0  0
    3.5562   -1.0961    0.2823 C   0  0  0  0  0  0  0  0  0  0  0  0
    4.8664   -1.6179    0.5221 N   0  0  0  0  0  0  0  0  0  0  0  0
    2.5903   -1.9665   -0.0581 N   0  0  0  0  0  0  0  0  0  0  0  0
    1.3177   -1.5608   -0.3027 C   0  0  0  0  0  0  0  0  0  0  0  0
    0.3387   -2.5261   -0.6452 N   0  0  0  0  0  0  0  0  0  0  0  0
    1.0102   -0.2165   -0.2021 C   0  0  0  0  0  0  0  0  0  0  0  0
   -0.3771    0.1940   -0.4294 C   0  0  0  0  0  0  0  0  0  0  0  0
   -0.7724    1.0847   -1.3610 C   0  0  0  0  0  0  0  0  0  0  0  0
   -2.0889    1.4173   -1.5723 C   0  0  0  0  0  0  0  0  0  0  0  0
   -3.0635    0.7970   -0.7825 C   0  0  0  0  0  0  0  0  0  0  0  0
   -2.6649   -0.0988    0.1478 C   0  0  0  0  0  0  0  0  0  0  0  0
   -1.3564   -0.4277    0.3604 C   0  0  0  0  0  0  0  0  0  0  0  0
   -3.8420   -0.5650    0.7878 O   0  0  0  0  0  0  0  0  0  0  0  0
   -4.9768   -0.1621    0.0173 C   0  0  0  0  0  0  0  0  0  0  0  0
   -4.4597    0.9188   -0.7652 O   0  0  0  0  0  0  0  0  0  0  0  0
  1  2  1  0
  2  3  1  0
  3  4  2  0
  4  5  1  0
  5  6  1  0
  5  7  2  0
  7  8  1  0
  8  9  1  0
  8 10  2  0
 10 11  1  0
 11 12  2  0
 12 13  1  0
 13 14  2  0
 14 15  1  0
 15 16  2  0
 15 17  1  0
 17 18  1  0
 18 19  1  0
 10  3  1  0
 16 11  1  0
 19 14  1  0
M  END
>  <zinc_id>  (267) 
ZINC000013472717

>  <ortholog_name>  (267) 
DRTS_PLAFK

>  <gene_name>  (267) 
DRTS_PLAFK

>  <affinity>  (267) 
8.96

>  <chembldocid>  (267) 
16871

>  <title>  (267) 
None

>  <reference.pubmed_id>  (267) 
11881993

>  <reference.doi>  (267) 
None

>  <reference.chembl_id>  (267) 
CHEMBL1135602

>  <reference.journal>  (267) 
J. Med. Chem.

>  <reference.year>  (267) 
2002

$$$$

     RDKit          3D

 19 21  0  0  0  0  0  0  0  0999 V2000
    3.0081    2.8438    0.1338 C   0  0  0  0  0  0  0  0  0  0  0  0
    1.6845    2.1225    0.2395 C   0  0  0  0  0  0  0  0  0  0  0  0
    1.9810    0.6688    0.1411 C   0  0  0  0  0  0  0  0  0  0  0  0
    3.2484    0.1907    0.3778 N   0  0  0  0  0  0  0  0  0  0  0  0
    3.5562   -1.0961    0.2823 C   0  0  0  0  0  0  0  0  0  0  0  0
    4.8664   -1.6179    0.5221 N   0  0  0  0  0  0  0  0  0  0  0  0
    2.5903   -1.9665   -0.0581 N   0  0  0  0  0  0  0  0  0  0  0  0
    1.3177   -1.5608   -0.3027 C   0  0  0  0  0  0  0  0  0  0  0  0
    0.3387   -2.5261   -0.6452 N   0  0  0  0  0  0  0  0  0  0  0  0
    1.0102   -0.2165   -0.2021 C   0  0  0  0  0  0  0  0  0  0  0  0
   -0.3771    0.1940   -0.4294 C   0  0  0  0  0  0  0  0  0  0  0  0
   -0.7724    1.0847   -1.3610 C   0  0  0  0  0  0  0  0  0  0  0  0
   -2.0889    1.4173   -1.5723 C   0  0  0  0  0  0  0  0  0  0  0  0
   -3.0635    0.7970   -0.7825 C   0  0  0  0  0  0  0  0  0  0  0  0
   -2.6649   -0.0988    0.1478 C   0  0  0  0  0  0  0  0  0  0  0  0
   -1.3564   -0.4277    0.3604 C   0  0  0  0  0  0  0  0  0  0  0  0
   -3.8420   -0.5650    0.7878 O   0  0  0  0  0  0  0  0  0  0  0  0
   -4.9768   -0.1621    0.0173 C   0  0  0  0  0  0  0  0  0  0  0  0
   -4.4597    0.9188   -0.7652 O   0  0  0  0  0  0  0  0  0  0  0  0
  1  2  1  0
  2  3  1  0
  3  4  2  0
  4  5  1  0
  5  6  1  0
  5  7  2  0
  7  8  1  0
  8  9  1  0
  8 10  2  0
 10 11  1  0
 11 12  2  0
 12 13  1  0
 13 14  2  0
 14 15  1  0
 15 16  2  0
 15 17  1  0
 17 18  1  0
 18 19  1  0
 10  3  1  0
 16 11  1  0
 19 14  1  0
M  END
>  <zinc_id>  (268) 
ZINC000013472717

>  <ortholog_name>  (268) 
DRTS_PLAFK

>  <gene_name>  (268) 
DRTS_PLAFK

>  <affinity>  (268) 
8.96

>  <chembldocid>  (268) 
17662

>  <title>  (268) 
None

>  <reference.pubmed_id>  (268) 
14736247

>  <reference.doi>  (268) 
None

>  <reference.chembl_id>  (268) 
CHEMBL1138835

>  <reference.journal>  (268) 
J. Med. Chem.

>  <reference.year>  (268) 
2004

$$$$

     RDKit          3D

 19 21  0  0  0  0  0  0  0  0999 V2000
    3.0081    2.8438    0.1338 C   0  0  0  0  0  0  0  0  0  0  0  0
    1.6845    2.1225    0.2395 C   0  0  0  0  0  0  0  0  0  0  0  0
    1.9810    0.6688    0.1411 C   0  0  0  0  0  0  0  0  0  0  0  0
    3.2484    0.1907    0.3778 N   0  0  0  0  0  0  0  0  0  0  0  0
    3.5562   -1.0961    0.2823 C   0  0  0  0  0  0  0  0  0  0  0  0
    4.8664   -1.6179    0.5221 N   0  0  0  0  0  0  0  0  0  0  0  0
    2.5903   -1.9665   -0.0581 N   0  0  0  0  0  0  0  0  0  0  0  0
    1.3177   -1.5608   -0.3027 C   0  0  0  0  0  0  0  0  0  0  0  0
    0.3387   -2.5261   -0.6452 N   0  0  0  0  0  0  0  0  0  0  0  0
    1.0102   -0.2165   -0.2021 C   0  0  0  0  0  0  0  0  0  0  0  0
   -0.3771    0.1940   -0.4294 C   0  0  0  0  0  0  0  0  0  0  0  0
   -0.7724    1.0847   -1.3610 C   0  0  0  0  0  0  0  0  0  0  0  0
   -2.0889    1.4173   -1.5723 C   0  0  0  0  0  0  0  0  0  0  0  0
   -3.0635    0.7970   -0.7825 C   0  0  0  0  0  0  0  0  0  0  0  0
   -2.6649   -0.0988    0.1478 C   0  0  0  0  0  0  0  0  0  0  0  0
   -1.3564   -0.4277    0.3604 C   0  0  0  0  0  0  0  0  0  0  0  0
   -3.8420   -0.5650    0.7878 O   0  0  0  0  0  0  0  0  0  0  0  0
   -4.9768   -0.1621    0.0173 C   0  0  0  0  0  0  0  0  0  0  0  0
   -4.4597    0.9188   -0.7652 O   0  0  0  0  0  0  0  0  0  0  0  0
  1  2  1  0
  2  3  1  0
  3  4  2  0
  4  5  1  0
  5  6  1  0
  5  7  2  0
  7  8  1  0
  8  9  1  0
  8 10  2  0
 10 11  1  0
 11 12  2  0
 12 13  1  0
 13 14  2  0
 14 15  1  0
 15 16  2  0
 15 17  1  0
 17 18  1  0
 18 19  1  0
 10  3  1  0
 16 11  1  0
 19 14  1  0
M  END
>  <zinc_id>  (269) 
ZINC000013472717

>  <ortholog_name>  (269) 
DRTS_PLAFK

>  <gene_name>  (269) 
DRTS_PLAFK

>  <affinity>  (269) 
6.92

>  <chembldocid>  (269) 
17662

>  <title>  (269) 
None

>  <reference.pubmed_id>  (269) 
14736247

>  <reference.doi>  (269) 
None

>  <reference.chembl_id>  (269) 
CHEMBL1138835

>  <reference.journal>  (269) 
J. Med. Chem.

>  <reference.year>  (269) 
2004

$$$$

     RDKit          3D

 19 21  0  0  0  0  0  0  0  0999 V2000
    3.0081    2.8438    0.1338 C   0  0  0  0  0  0  0  0  0  0  0  0
    1.6845    2.1225    0.2395 C   0  0  0  0  0  0  0  0  0  0  0  0
    1.9810    0.6688    0.1411 C   0  0  0  0  0  0  0  0  0  0  0  0
    3.2484    0.1907    0.3778 N   0  0  0  0  0  0  0  0  0  0  0  0
    3.5562   -1.0961    0.2823 C   0  0  0  0  0  0  0  0  0  0  0  0
    4.8664   -1.6179    0.5221 N   0  0  0  0  0  0  0  0  0  0  0  0
    2.5903   -1.9665   -0.0581 N   0  0  0  0  0  0  0  0  0  0  0  0
    1.3177   -1.5608   -0.3027 C   0  0  0  0  0  0  0  0  0  0  0  0
    0.3387   -2.5261   -0.6452 N   0  0  0  0  0  0  0  0  0  0  0  0
    1.0102   -0.2165   -0.2021 C   0  0  0  0  0  0  0  0  0  0  0  0
   -0.3771    0.1940   -0.4294 C   0  0  0  0  0  0  0  0  0  0  0  0
   -0.7724    1.0847   -1.3610 C   0  0  0  0  0  0  0  0  0  0  0  0
   -2.0889    1.4173   -1.5723 C   0  0  0  0  0  0  0  0  0  0  0  0
   -3.0635    0.7970   -0.7825 C   0  0  0  0  0  0  0  0  0  0  0  0
   -2.6649   -0.0988    0.1478 C   0  0  0  0  0  0  0  0  0  0  0  0
   -1.3564   -0.4277    0.3604 C   0  0  0  0  0  0  0  0  0  0  0  0
   -3.8420   -0.5650    0.7878 O   0  0  0  0  0  0  0  0  0  0  0  0
   -4.9768   -0.1621    0.0173 C   0  0  0  0  0  0  0  0  0  0  0  0
   -4.4597    0.9188   -0.7652 O   0  0  0  0  0  0  0  0  0  0  0  0
  1  2  1  0
  2  3  1  0
  3  4  2  0
  4  5  1  0
  5  6  1  0
  5  7  2  0
  7  8  1  0
  8  9  1  0
  8 10  2  0
 10 11  1  0
 11 12  2  0
 12 13  1  0
 13 14  2  0
 14 15  1  0
 15 16  2  0
 15 17  1  0
 17 18  1  0
 18 19  1  0
 10  3  1  0
 16 11  1  0
 19 14  1  0
M  END
>  <zinc_id>  (270) 
ZINC000013472717

>  <ortholog_name>  (270) 
DRTS_PLAFK

>  <gene_name>  (270) 
DRTS_PLAFK

>  <affinity>  (270) 
7.76

>  <chembldocid>  (270) 
16871

>  <title>  (270) 
None

>  <reference.pubmed_id>  (270) 
11881993

>  <reference.doi>  (270) 
None

>  <reference.chembl_id>  (270) 
CHEMBL1135602

>  <reference.journal>  (270) 
J. Med. Chem.

>  <reference.year>  (270) 
2002

$$$$

     RDKit          3D

 19 21  0  0  0  0  0  0  0  0999 V2000
    3.0081    2.8438    0.1338 C   0  0  0  0  0  0  0  0  0  0  0  0
    1.6845    2.1225    0.2395 C   0  0  0  0  0  0  0  0  0  0  0  0
    1.9810    0.6688    0.1411 C   0  0  0  0  0  0  0  0  0  0  0  0
    3.2484    0.1907    0.3778 N   0  0  0  0  0  0  0  0  0  0  0  0
    3.5562   -1.0961    0.2823 C   0  0  0  0  0  0  0  0  0  0  0  0
    4.8664   -1.6179    0.5221 N   0  0  0  0  0  0  0  0  0  0  0  0
    2.5903   -1.9665   -0.0581 N   0  0  0  0  0  0  0  0  0  0  0  0
    1.3177   -1.5608   -0.3027 C   0  0  0  0  0  0  0  0  0  0  0  0
    0.3387   -2.5261   -0.6452 N   0  0  0  0  0  0  0  0  0  0  0  0
    1.0102   -0.2165   -0.2021 C   0  0  0  0  0  0  0  0  0  0  0  0
   -0.3771    0.1940   -0.4294 C   0  0  0  0  0  0  0  0  0  0  0  0
   -0.7724    1.0847   -1.3610 C   0  0  0  0  0  0  0  0  0  0  0  0
   -2.0889    1.4173   -1.5723 C   0  0  0  0  0  0  0  0  0  0  0  0
   -3.0635    0.7970   -0.7825 C   0  0  0  0  0  0  0  0  0  0  0  0
   -2.6649   -0.0988    0.1478 C   0  0  0  0  0  0  0  0  0  0  0  0
   -1.3564   -0.4277    0.3604 C   0  0  0  0  0  0  0  0  0  0  0  0
   -3.8420   -0.5650    0.7878 O   0  0  0  0  0  0  0  0  0  0  0  0
   -4.9768   -0.1621    0.0173 C   0  0  0  0  0  0  0  0  0  0  0  0
   -4.4597    0.9188   -0.7652 O   0  0  0  0  0  0  0  0  0  0  0  0
  1  2  1  0
  2  3  1  0
  3  4  2  0
  4  5  1  0
  5  6  1  0
  5  7  2  0
  7  8  1  0
  8  9  1  0
  8 10  2  0
 10 11  1  0
 11 12  2  0
 12 13  1  0
 13 14  2  0
 14 15  1  0
 15 16  2  0
 15 17  1  0
 17 18  1  0
 18 19  1  0
 10  3  1  0
 16 11  1  0
 19 14  1  0
M  END
>  <zinc_id>  (271) 
ZINC000013472717

>  <ortholog_name>  (271) 
DRTS_PLAFK

>  <gene_name>  (271) 
DRTS_PLAFK

>  <affinity>  (271) 
6.57

>  <chembldocid>  (271) 
17662

>  <title>  (271) 
None

>  <reference.pubmed_id>  (271) 
14736247

>  <reference.doi>  (271) 
None

>  <reference.chembl_id>  (271) 
CHEMBL1138835

>  <reference.journal>  (271) 
J. Med. Chem.

>  <reference.year>  (271) 
2004

$$$$

     RDKit          3D

 19 21  0  0  0  0  0  0  0  0999 V2000
    3.0081    2.8438    0.1338 C   0  0  0  0  0  0  0  0  0  0  0  0
    1.6845    2.1225    0.2395 C   0  0  0  0  0  0  0  0  0  0  0  0
    1.9810    0.6688    0.1411 C   0  0  0  0  0  0  0  0  0  0  0  0
    3.2484    0.1907    0.3778 N   0  0  0  0  0  0  0  0  0  0  0  0
    3.5562   -1.0961    0.2823 C   0  0  0  0  0  0  0  0  0  0  0  0
    4.8664   -1.6179    0.5221 N   0  0  0  0  0  0  0  0  0  0  0  0
    2.5903   -1.9665   -0.0581 N   0  0  0  0  0  0  0  0  0  0  0  0
    1.3177   -1.5608   -0.3027 C   0  0  0  0  0  0  0  0  0  0  0  0
    0.3387   -2.5261   -0.6452 N   0  0  0  0  0  0  0  0  0  0  0  0
    1.0102   -0.2165   -0.2021 C   0  0  0  0  0  0  0  0  0  0  0  0
   -0.3771    0.1940   -0.4294 C   0  0  0  0  0  0  0  0  0  0  0  0
   -0.7724    1.0847   -1.3610 C   0  0  0  0  0  0  0  0  0  0  0  0
   -2.0889    1.4173   -1.5723 C   0  0  0  0  0  0  0  0  0  0  0  0
   -3.0635    0.7970   -0.7825 C   0  0  0  0  0  0  0  0  0  0  0  0
   -2.6649   -0.0988    0.1478 C   0  0  0  0  0  0  0  0  0  0  0  0
   -1.3564   -0.4277    0.3604 C   0  0  0  0  0  0  0  0  0  0  0  0
   -3.8420   -0.5650    0.7878 O   0  0  0  0  0  0  0  0  0  0  0  0
   -4.9768   -0.1621    0.0173 C   0  0  0  0  0  0  0  0  0  0  0  0
   -4.4597    0.9188   -0.7652 O   0  0  0  0  0  0  0  0  0  0  0  0
  1  2  1  0
  2  3  1  0
  3  4  2  0
  4  5  1  0
  5  6  1  0
  5  7  2  0
  7  8  1  0
  8  9  1  0
  8 10  2  0
 10 11  1  0
 11 12  2  0
 12 13  1  0
 13 14  2  0
 14 15  1  0
 15 16  2  0
 15 17  1  0
 17 18  1  0
 18 19  1  0
 10  3  1  0
 16 11  1  0
 19 14  1  0
M  END
>  <zinc_id>  (272) 
ZINC000013472717

>  <ortholog_name>  (272) 
DRTS_PLAFK

>  <gene_name>  (272) 
DRTS_PLAFK

>  <affinity>  (272) 
7.46

>  <chembldocid>  (272) 
16871

>  <title>  (272) 
None

>  <reference.pubmed_id>  (272) 
11881993

>  <reference.doi>  (272) 
None

>  <reference.chembl_id>  (272) 
CHEMBL1135602

>  <reference.journal>  (272) 
J. Med. Chem.

>  <reference.year>  (272) 
2002

$$$$

     RDKit          3D

 19 21  0  0  0  0  0  0  0  0999 V2000
    3.0081    2.8438    0.1338 C   0  0  0  0  0  0  0  0  0  0  0  0
    1.6845    2.1225    0.2395 C   0  0  0  0  0  0  0  0  0  0  0  0
    1.9810    0.6688    0.1411 C   0  0  0  0  0  0  0  0  0  0  0  0
    3.2484    0.1907    0.3778 N   0  0  0  0  0  0  0  0  0  0  0  0
    3.5562   -1.0961    0.2823 C   0  0  0  0  0  0  0  0  0  0  0  0
    4.8664   -1.6179    0.5221 N   0  0  0  0  0  0  0  0  0  0  0  0
    2.5903   -1.9665   -0.0581 N   0  0  0  0  0  0  0  0  0  0  0  0
    1.3177   -1.5608   -0.3027 C   0  0  0  0  0  0  0  0  0  0  0  0
    0.3387   -2.5261   -0.6452 N   0  0  0  0  0  0  0  0  0  0  0  0
    1.0102   -0.2165   -0.2021 C   0  0  0  0  0  0  0  0  0  0  0  0
   -0.3771    0.1940   -0.4294 C   0  0  0  0  0  0  0  0  0  0  0  0
   -0.7724    1.0847   -1.3610 C   0  0  0  0  0  0  0  0  0  0  0  0
   -2.0889    1.4173   -1.5723 C   0  0  0  0  0  0  0  0  0  0  0  0
   -3.0635    0.7970   -0.7825 C   0  0  0  0  0  0  0  0  0  0  0  0
   -2.6649   -0.0988    0.1478 C   0  0  0  0  0  0  0  0  0  0  0  0
   -1.3564   -0.4277    0.3604 C   0  0  0  0  0  0  0  0  0  0  0  0
   -3.8420   -0.5650    0.7878 O   0  0  0  0  0  0  0  0  0  0  0  0
   -4.9768   -0.1621    0.0173 C   0  0  0  0  0  0  0  0  0  0  0  0
   -4.4597    0.9188   -0.7652 O   0  0  0  0  0  0  0  0  0  0  0  0
  1  2  1  0
  2  3  1  0
  3  4  2  0
  4  5  1  0
  5  6  1  0
  5  7  2  0
  7  8  1  0
  8  9  1  0
  8 10  2  0
 10 11  1  0
 11 12  2  0
 12 13  1  0
 13 14  2  0
 14 15  1  0
 15 16  2  0
 15 17  1  0
 17 18  1  0
 18 19  1  0
 10  3  1  0
 16 11  1  0
 19 14  1  0
M  END
>  <zinc_id>  (273) 
ZINC000013472717

>  <ortholog_name>  (273) 
DRTS_PLAFK

>  <gene_name>  (273) 
DRTS_PLAFK

>  <affinity>  (273) 
7.14

>  <chembldocid>  (273) 
21047

>  <title>  (273) 
None

>  <reference.pubmed_id>  (273) 
15293997

>  <reference.doi>  (273) 
None

>  <reference.chembl_id>  (273) 
CHEMBL1138679

>  <reference.journal>  (273) 
J. Med. Chem.

>  <reference.year>  (273) 
2004

$$$$

     RDKit          3D

 19 21  0  0  0  0  0  0  0  0999 V2000
    3.0081    2.8438    0.1338 C   0  0  0  0  0  0  0  0  0  0  0  0
    1.6845    2.1225    0.2395 C   0  0  0  0  0  0  0  0  0  0  0  0
    1.9810    0.6688    0.1411 C   0  0  0  0  0  0  0  0  0  0  0  0
    3.2484    0.1907    0.3778 N   0  0  0  0  0  0  0  0  0  0  0  0
    3.5562   -1.0961    0.2823 C   0  0  0  0  0  0  0  0  0  0  0  0
    4.8664   -1.6179    0.5221 N   0  0  0  0  0  0  0  0  0  0  0  0
    2.5903   -1.9665   -0.0581 N   0  0  0  0  0  0  0  0  0  0  0  0
    1.3177   -1.5608   -0.3027 C   0  0  0  0  0  0  0  0  0  0  0  0
    0.3387   -2.5261   -0.6452 N   0  0  0  0  0  0  0  0  0  0  0  0
    1.0102   -0.2165   -0.2021 C   0  0  0  0  0  0  0  0  0  0  0  0
   -0.3771    0.1940   -0.4294 C   0  0  0  0  0  0  0  0  0  0  0  0
   -0.7724    1.0847   -1.3610 C   0  0  0  0  0  0  0  0  0  0  0  0
   -2.0889    1.4173   -1.5723 C   0  0  0  0  0  0  0  0  0  0  0  0
   -3.0635    0.7970   -0.7825 C   0  0  0  0  0  0  0  0  0  0  0  0
   -2.6649   -0.0988    0.1478 C   0  0  0  0  0  0  0  0  0  0  0  0
   -1.3564   -0.4277    0.3604 C   0  0  0  0  0  0  0  0  0  0  0  0
   -3.8420   -0.5650    0.7878 O   0  0  0  0  0  0  0  0  0  0  0  0
   -4.9768   -0.1621    0.0173 C   0  0  0  0  0  0  0  0  0  0  0  0
   -4.4597    0.9188   -0.7652 O   0  0  0  0  0  0  0  0  0  0  0  0
  1  2  1  0
  2  3  1  0
  3  4  2  0
  4  5  1  0
  5  6  1  0
  5  7  2  0
  7  8  1  0
  8  9  1  0
  8 10  2  0
 10 11  1  0
 11 12  2  0
 12 13  1  0
 13 14  2  0
 14 15  1  0
 15 16  2  0
 15 17  1  0
 17 18  1  0
 18 19  1  0
 10  3  1  0
 16 11  1  0
 19 14  1  0
M  END
>  <zinc_id>  (274) 
ZINC000013472717

>  <ortholog_name>  (274) 
DRTS_PLAFK

>  <gene_name>  (274) 
DRTS_PLAFK

>  <affinity>  (274) 
8.08

>  <chembldocid>  (274) 
17662

>  <title>  (274) 
None

>  <reference.pubmed_id>  (274) 
14736247

>  <reference.doi>  (274) 
None

>  <reference.chembl_id>  (274) 
CHEMBL1138835

>  <reference.journal>  (274) 
J. Med. Chem.

>  <reference.year>  (274) 
2004

$$$$

     RDKit          3D

 18 19  0  0  0  0  0  0  0  0999 V2000
    0.1472    2.5203   -1.3872 C   0  0  0  0  0  0  0  0  0  0  0  0
   -0.3951    1.2056   -1.9568 C   0  0  0  0  0  0  0  0  0  0  0  0
   -1.3027    0.6233   -0.9053 C   0  0  0  0  0  0  0  0  0  0  0  0
   -2.6366    0.6832   -1.0143 N   0  0  0  0  0  0  0  0  0  0  0  0
   -3.4240    0.1583   -0.0667 C   0  0  0  0  0  0  0  0  0  0  0  0
   -4.8636    0.2230   -0.1708 N   0  0  0  0  0  0  0  0  0  0  0  0
   -2.8398   -0.4284    0.9935 N   0  0  0  0  0  0  0  0  0  0  0  0
   -1.5116   -0.5232    1.1659 C   0  0  0  0  0  0  0  0  0  0  0  0
   -0.9513   -1.1672    2.3326 N   0  0  0  0  0  0  0  0  0  0  0  0
   -0.6944    0.0144    0.1960 C   0  0  0  0  0  0  0  0  0  0  0  0
    0.7378   -0.0521    0.3237 C   0  0  0  0  0  0  0  0  0  0  0  0
    1.4217    0.9448    0.9677 C   0  0  0  0  0  0  0  0  0  0  0  0
    2.7872    0.9441    1.1286 C   0  0  0  0  0  0  0  0  0  0  0  0
    3.4473   -0.1520    0.5866 C   0  0  0  0  0  0  0  0  0  0  0  0
    5.2086   -0.2597    0.7264 Cl  0  0  0  0  0  0  0  0  0  0  0  0
    2.8087   -1.1632   -0.0589 C   0  0  0  0  0  0  0  0  0  0  0  0
    1.4329   -1.1249   -0.1998 C   0  0  0  0  0  0  0  0  0  0  0  0
    0.6279   -2.4463   -1.0464 Cl  0  0  0  0  0  0  0  0  0  0  0  0
  1  2  1  0
  2  3  1  0
  3  4  2  0
  4  5  1  0
  5  6  1  0
  5  7  2  0
  7  8  1  0
  8  9  1  0
  8 10  2  0
 10 11  1  0
 11 12  2  0
 12 13  1  0
 13 14  2  0
 14 15  1  0
 14 16  1  0
 16 17  2  0
 17 18  1  0
 10  3  1  0
 17 11  1  0
M  END
>  <zinc_id>  (275) 
ZINC000013472718

>  <ortholog_name>  (275) 
DRTS_PLAFK

>  <gene_name>  (275) 
DRTS_PLAFK

>  <affinity>  (275) 
9.04

>  <chembldocid>  (275) 
21047

>  <title>  (275) 
None

>  <reference.pubmed_id>  (275) 
15293997

>  <reference.doi>  (275) 
None

>  <reference.chembl_id>  (275) 
CHEMBL1138679

>  <reference.journal>  (275) 
J. Med. Chem.

>  <reference.year>  (275) 
2004

$$$$

     RDKit          3D

 18 19  0  0  0  0  0  0  0  0999 V2000
    0.1472    2.5203   -1.3872 C   0  0  0  0  0  0  0  0  0  0  0  0
   -0.3951    1.2056   -1.9568 C   0  0  0  0  0  0  0  0  0  0  0  0
   -1.3027    0.6233   -0.9053 C   0  0  0  0  0  0  0  0  0  0  0  0
   -2.6366    0.6832   -1.0143 N   0  0  0  0  0  0  0  0  0  0  0  0
   -3.4240    0.1583   -0.0667 C   0  0  0  0  0  0  0  0  0  0  0  0
   -4.8636    0.2230   -0.1708 N   0  0  0  0  0  0  0  0  0  0  0  0
   -2.8398   -0.4284    0.9935 N   0  0  0  0  0  0  0  0  0  0  0  0
   -1.5116   -0.5232    1.1659 C   0  0  0  0  0  0  0  0  0  0  0  0
   -0.9513   -1.1672    2.3326 N   0  0  0  0  0  0  0  0  0  0  0  0
   -0.6944    0.0144    0.1960 C   0  0  0  0  0  0  0  0  0  0  0  0
    0.7378   -0.0521    0.3237 C   0  0  0  0  0  0  0  0  0  0  0  0
    1.4217    0.9448    0.9677 C   0  0  0  0  0  0  0  0  0  0  0  0
    2.7872    0.9441    1.1286 C   0  0  0  0  0  0  0  0  0  0  0  0
    3.4473   -0.1520    0.5866 C   0  0  0  0  0  0  0  0  0  0  0  0
    5.2086   -0.2597    0.7264 Cl  0  0  0  0  0  0  0  0  0  0  0  0
    2.8087   -1.1632   -0.0589 C   0  0  0  0  0  0  0  0  0  0  0  0
    1.4329   -1.1249   -0.1998 C   0  0  0  0  0  0  0  0  0  0  0  0
    0.6279   -2.4463   -1.0464 Cl  0  0  0  0  0  0  0  0  0  0  0  0
  1  2  1  0
  2  3  1  0
  3  4  2  0
  4  5  1  0
  5  6  1  0
  5  7  2  0
  7  8  1  0
  8  9  1  0
  8 10  2  0
 10 11  1  0
 11 12  2  0
 12 13  1  0
 13 14  2  0
 14 15  1  0
 14 16  1  0
 16 17  2  0
 17 18  1  0
 10  3  1  0
 17 11  1  0
M  END
>  <zinc_id>  (276) 
ZINC000013472718

>  <ortholog_name>  (276) 
DRTS_PLAFK

>  <gene_name>  (276) 
DRTS_PLAFK

>  <affinity>  (276) 
5.94

>  <chembldocid>  (276) 
16871

>  <title>  (276) 
None

>  <reference.pubmed_id>  (276) 
11881993

>  <reference.doi>  (276) 
None

>  <reference.chembl_id>  (276) 
CHEMBL1135602

>  <reference.journal>  (276) 
J. Med. Chem.

>  <reference.year>  (276) 
2002

$$$$

     RDKit          3D

 18 19  0  0  0  0  0  0  0  0999 V2000
    0.1472    2.5203   -1.3872 C   0  0  0  0  0  0  0  0  0  0  0  0
   -0.3951    1.2056   -1.9568 C   0  0  0  0  0  0  0  0  0  0  0  0
   -1.3027    0.6233   -0.9053 C   0  0  0  0  0  0  0  0  0  0  0  0
   -2.6366    0.6832   -1.0143 N   0  0  0  0  0  0  0  0  0  0  0  0
   -3.4240    0.1583   -0.0667 C   0  0  0  0  0  0  0  0  0  0  0  0
   -4.8636    0.2230   -0.1708 N   0  0  0  0  0  0  0  0  0  0  0  0
   -2.8398   -0.4284    0.9935 N   0  0  0  0  0  0  0  0  0  0  0  0
   -1.5116   -0.5232    1.1659 C   0  0  0  0  0  0  0  0  0  0  0  0
   -0.9513   -1.1672    2.3326 N   0  0  0  0  0  0  0  0  0  0  0  0
   -0.6944    0.0144    0.1960 C   0  0  0  0  0  0  0  0  0  0  0  0
    0.7378   -0.0521    0.3237 C   0  0  0  0  0  0  0  0  0  0  0  0
    1.4217    0.9448    0.9677 C   0  0  0  0  0  0  0  0  0  0  0  0
    2.7872    0.9441    1.1286 C   0  0  0  0  0  0  0  0  0  0  0  0
    3.4473   -0.1520    0.5866 C   0  0  0  0  0  0  0  0  0  0  0  0
    5.2086   -0.2597    0.7264 Cl  0  0  0  0  0  0  0  0  0  0  0  0
    2.8087   -1.1632   -0.0589 C   0  0  0  0  0  0  0  0  0  0  0  0
    1.4329   -1.1249   -0.1998 C   0  0  0  0  0  0  0  0  0  0  0  0
    0.6279   -2.4463   -1.0464 Cl  0  0  0  0  0  0  0  0  0  0  0  0
  1  2  1  0
  2  3  1  0
  3  4  2  0
  4  5  1  0
  5  6  1  0
  5  7  2  0
  7  8  1  0
  8  9  1  0
  8 10  2  0
 10 11  1  0
 11 12  2  0
 12 13  1  0
 13 14  2  0
 14 15  1  0
 14 16  1  0
 16 17  2  0
 17 18  1  0
 10  3  1  0
 17 11  1  0
M  END
>  <zinc_id>  (277) 
ZINC000013472718

>  <ortholog_name>  (277) 
DRTS_PLAFK

>  <gene_name>  (277) 
DRTS_PLAFK

>  <affinity>  (277) 
5.93

>  <chembldocid>  (277) 
16871

>  <title>  (277) 
None

>  <reference.pubmed_id>  (277) 
11881993

>  <reference.doi>  (277) 
None

>  <reference.chembl_id>  (277) 
CHEMBL1135602

>  <reference.journal>  (277) 
J. Med. Chem.

>  <reference.year>  (277) 
2002

$$$$

     RDKit          3D

 18 19  0  0  0  0  0  0  0  0999 V2000
    0.1472    2.5203   -1.3872 C   0  0  0  0  0  0  0  0  0  0  0  0
   -0.3951    1.2056   -1.9568 C   0  0  0  0  0  0  0  0  0  0  0  0
   -1.3027    0.6233   -0.9053 C   0  0  0  0  0  0  0  0  0  0  0  0
   -2.6366    0.6832   -1.0143 N   0  0  0  0  0  0  0  0  0  0  0  0
   -3.4240    0.1583   -0.0667 C   0  0  0  0  0  0  0  0  0  0  0  0
   -4.8636    0.2230   -0.1708 N   0  0  0  0  0  0  0  0  0  0  0  0
   -2.8398   -0.4284    0.9935 N   0  0  0  0  0  0  0  0  0  0  0  0
   -1.5116   -0.5232    1.1659 C   0  0  0  0  0  0  0  0  0  0  0  0
   -0.9513   -1.1672    2.3326 N   0  0  0  0  0  0  0  0  0  0  0  0
   -0.6944    0.0144    0.1960 C   0  0  0  0  0  0  0  0  0  0  0  0
    0.7378   -0.0521    0.3237 C   0  0  0  0  0  0  0  0  0  0  0  0
    1.4217    0.9448    0.9677 C   0  0  0  0  0  0  0  0  0  0  0  0
    2.7872    0.9441    1.1286 C   0  0  0  0  0  0  0  0  0  0  0  0
    3.4473   -0.1520    0.5866 C   0  0  0  0  0  0  0  0  0  0  0  0
    5.2086   -0.2597    0.7264 Cl  0  0  0  0  0  0  0  0  0  0  0  0
    2.8087   -1.1632   -0.0589 C   0  0  0  0  0  0  0  0  0  0  0  0
    1.4329   -1.1249   -0.1998 C   0  0  0  0  0  0  0  0  0  0  0  0
    0.6279   -2.4463   -1.0464 Cl  0  0  0  0  0  0  0  0  0  0  0  0
  1  2  1  0
  2  3  1  0
  3  4  2  0
  4  5  1  0
  5  6  1  0
  5  7  2  0
  7  8  1  0
  8  9  1  0
  8 10  2  0
 10 11  1  0
 11 12  2  0
 12 13  1  0
 13 14  2  0
 14 15  1  0
 14 16  1  0
 16 17  2  0
 17 18  1  0
 10  3  1  0
 17 11  1  0
M  END
>  <zinc_id>  (278) 
ZINC000013472718

>  <ortholog_name>  (278) 
DRTS_PLAFK

>  <gene_name>  (278) 
DRTS_PLAFK

>  <affinity>  (278) 
7.90

>  <chembldocid>  (278) 
16871

>  <title>  (278) 
None

>  <reference.pubmed_id>  (278) 
11881993

>  <reference.doi>  (278) 
None

>  <reference.chembl_id>  (278) 
CHEMBL1135602

>  <reference.journal>  (278) 
J. Med. Chem.

>  <reference.year>  (278) 
2002

$$$$

     RDKit          3D

 28 30  0  0  0  0  0  0  0  0999 V2000
   -3.1863    2.7880    0.5858 C   0  0  0  0  0  0  0  0  0  0  0  0
   -3.8134    1.5788    1.2406 C   0  0  0  0  0  0  0  0  0  0  0  0
   -4.3798    0.6558    0.2243 C   0  0  0  0  0  0  0  0  0  0  0  0
   -5.7067    0.5804   -0.0026 N   0  0  0  0  0  0  0  0  0  0  0  0
   -6.2353   -0.2497   -0.9192 C   0  0  0  0  0  0  0  0  0  0  0  0
   -7.6377   -0.3071   -1.1365 N   0  0  0  0  0  0  0  0  0  0  0  0
   -5.4016   -1.0271   -1.6282 N   0  0  0  0  0  0  0  0  0  0  0  0
   -4.0817   -1.0153   -1.4678 C   0  0  0  0  0  0  0  0  0  0  0  0
   -3.1927   -1.8537   -2.2336 N   0  0  0  0  0  0  0  0  0  0  0  0
   -3.5614   -0.1455   -0.5111 C   0  0  0  0  0  0  0  0  0  0  0  0
   -2.1033   -0.1322   -0.3337 C   0  0  0  0  0  0  0  0  0  0  0  0
   -1.4772   -0.8282    0.6859 C   0  0  0  0  0  0  0  0  0  0  0  0
   -0.1022   -0.7410    0.7528 C   0  0  0  0  0  0  0  0  0  0  0  0
    0.6513   -0.0048   -0.1360 C   0  0  0  0  0  0  0  0  0  0  0  0
    2.0299    0.0347   -0.0043 O   0  0  0  0  0  0  0  0  0  0  0  0
    2.6649   -0.6787    1.0399 C   0  0  0  0  0  0  0  0  0  0  0  0
    4.1248   -0.4652    0.9497 C   0  0  0  0  0  0  0  0  0  0  0  0
    4.6901    0.3212   -0.0309 C   0  0  0  0  0  0  0  0  0  0  0  0
    6.0536    0.5196   -0.1139 C   0  0  0  0  0  0  0  0  0  0  0  0
    6.9056   -0.0696    0.7926 C   0  0  0  0  0  0  0  0  0  0  0  0
    8.6493    0.1612    0.7174 Cl  0  0  0  0  0  0  0  0  0  0  0  0
    6.3639   -0.8594    1.7810 C   0  0  0  0  0  0  0  0  0  0  0  0
    4.9884   -1.0551    1.8587 C   0  0  0  0  0  0  0  0  0  0  0  0
    4.2860   -2.0503    3.1006 Cl  0  0  0  0  0  0  0  0  0  0  0  0
    0.0180    0.6821   -1.1442 C   0  0  0  0  0  0  0  0  0  0  0  0
    0.7597    1.4400   -2.0640 O   0  0  0  0  0  0  0  0  0  0  0  0
    0.0498    2.1222   -3.0764 C   0  0  0  0  0  0  0  0  0  0  0  0
   -1.3560    0.5993   -1.2169 C   0  0  0  0  0  0  0  0  0  0  0  0
  1  2  1  0
  2  3  1  0
  3  4  2  0
  4  5  1  0
  5  6  1  0
  5  7  2  0
  7  8  1  0
  8  9  1  0
  8 10  2  0
 10 11  1  0
 11 12  2  0
 12 13  1  0
 13 14  2  0
 14 15  1  0
 15 16  1  0
 16 17  1  0
 17 18  2  0
 18 19  1  0
 19 20  2  0
 20 21  1  0
 20 22  1  0
 22 23  2  0
 23 24  1  0
 14 25  1  0
 25 26  1  0
 26 27  1  0
 25 28  2  0
 10  3  1  0
 28 11  1  0
 23 17  1  0
M  END
>  <zinc_id>  (279) 
ZINC000013472719

>  <ortholog_name>  (279) 
DRTS_PLAFK

>  <gene_name>  (279) 
DRTS_PLAFK

>  <affinity>  (279) 
9.00

>  <chembldocid>  (279) 
16871

>  <title>  (279) 
None

>  <reference.pubmed_id>  (279) 
11881993

>  <reference.doi>  (279) 
None

>  <reference.chembl_id>  (279) 
CHEMBL1135602

>  <reference.journal>  (279) 
J. Med. Chem.

>  <reference.year>  (279) 
2002

$$$$

     RDKit          3D

 28 30  0  0  0  0  0  0  0  0999 V2000
   -3.1863    2.7880    0.5858 C   0  0  0  0  0  0  0  0  0  0  0  0
   -3.8134    1.5788    1.2406 C   0  0  0  0  0  0  0  0  0  0  0  0
   -4.3798    0.6558    0.2243 C   0  0  0  0  0  0  0  0  0  0  0  0
   -5.7067    0.5804   -0.0026 N   0  0  0  0  0  0  0  0  0  0  0  0
   -6.2353   -0.2497   -0.9192 C   0  0  0  0  0  0  0  0  0  0  0  0
   -7.6377   -0.3071   -1.1365 N   0  0  0  0  0  0  0  0  0  0  0  0
   -5.4016   -1.0271   -1.6282 N   0  0  0  0  0  0  0  0  0  0  0  0
   -4.0817   -1.0153   -1.4678 C   0  0  0  0  0  0  0  0  0  0  0  0
   -3.1927   -1.8537   -2.2336 N   0  0  0  0  0  0  0  0  0  0  0  0
   -3.5614   -0.1455   -0.5111 C   0  0  0  0  0  0  0  0  0  0  0  0
   -2.1033   -0.1322   -0.3337 C   0  0  0  0  0  0  0  0  0  0  0  0
   -1.4772   -0.8282    0.6859 C   0  0  0  0  0  0  0  0  0  0  0  0
   -0.1022   -0.7410    0.7528 C   0  0  0  0  0  0  0  0  0  0  0  0
    0.6513   -0.0048   -0.1360 C   0  0  0  0  0  0  0  0  0  0  0  0
    2.0299    0.0347   -0.0043 O   0  0  0  0  0  0  0  0  0  0  0  0
    2.6649   -0.6787    1.0399 C   0  0  0  0  0  0  0  0  0  0  0  0
    4.1248   -0.4652    0.9497 C   0  0  0  0  0  0  0  0  0  0  0  0
    4.6901    0.3212   -0.0309 C   0  0  0  0  0  0  0  0  0  0  0  0
    6.0536    0.5196   -0.1139 C   0  0  0  0  0  0  0  0  0  0  0  0
    6.9056   -0.0696    0.7926 C   0  0  0  0  0  0  0  0  0  0  0  0
    8.6493    0.1612    0.7174 Cl  0  0  0  0  0  0  0  0  0  0  0  0
    6.3639   -0.8594    1.7810 C   0  0  0  0  0  0  0  0  0  0  0  0
    4.9884   -1.0551    1.8587 C   0  0  0  0  0  0  0  0  0  0  0  0
    4.2860   -2.0503    3.1006 Cl  0  0  0  0  0  0  0  0  0  0  0  0
    0.0180    0.6821   -1.1442 C   0  0  0  0  0  0  0  0  0  0  0  0
    0.7597    1.4400   -2.0640 O   0  0  0  0  0  0  0  0  0  0  0  0
    0.0498    2.1222   -3.0764 C   0  0  0  0  0  0  0  0  0  0  0  0
   -1.3560    0.5993   -1.2169 C   0  0  0  0  0  0  0  0  0  0  0  0
  1  2  1  0
  2  3  1  0
  3  4  2  0
  4  5  1  0
  5  6  1  0
  5  7  2  0
  7  8  1  0
  8  9  1  0
  8 10  2  0
 10 11  1  0
 11 12  2  0
 12 13  1  0
 13 14  2  0
 14 15  1  0
 15 16  1  0
 16 17  1  0
 17 18  2  0
 18 19  1  0
 19 20  2  0
 20 21  1  0
 20 22  1  0
 22 23  2  0
 23 24  1  0
 14 25  1  0
 25 26  1  0
 26 27  1  0
 25 28  2  0
 10  3  1  0
 28 11  1  0
 23 17  1  0
M  END
>  <zinc_id>  (280) 
ZINC000013472719

>  <ortholog_name>  (280) 
DRTS_PLAFK

>  <gene_name>  (280) 
DRTS_PLAFK

>  <affinity>  (280) 
7.68

>  <chembldocid>  (280) 
16871

>  <title>  (280) 
None

>  <reference.pubmed_id>  (280) 
11881993

>  <reference.doi>  (280) 
None

>  <reference.chembl_id>  (280) 
CHEMBL1135602

>  <reference.journal>  (280) 
J. Med. Chem.

>  <reference.year>  (280) 
2002

$$$$

     RDKit          3D

 28 30  0  0  0  0  0  0  0  0999 V2000
   -3.1863    2.7880    0.5858 C   0  0  0  0  0  0  0  0  0  0  0  0
   -3.8134    1.5788    1.2406 C   0  0  0  0  0  0  0  0  0  0  0  0
   -4.3798    0.6558    0.2243 C   0  0  0  0  0  0  0  0  0  0  0  0
   -5.7067    0.5804   -0.0026 N   0  0  0  0  0  0  0  0  0  0  0  0
   -6.2353   -0.2497   -0.9192 C   0  0  0  0  0  0  0  0  0  0  0  0
   -7.6377   -0.3071   -1.1365 N   0  0  0  0  0  0  0  0  0  0  0  0
   -5.4016   -1.0271   -1.6282 N   0  0  0  0  0  0  0  0  0  0  0  0
   -4.0817   -1.0153   -1.4678 C   0  0  0  0  0  0  0  0  0  0  0  0
   -3.1927   -1.8537   -2.2336 N   0  0  0  0  0  0  0  0  0  0  0  0
   -3.5614   -0.1455   -0.5111 C   0  0  0  0  0  0  0  0  0  0  0  0
   -2.1033   -0.1322   -0.3337 C   0  0  0  0  0  0  0  0  0  0  0  0
   -1.4772   -0.8282    0.6859 C   0  0  0  0  0  0  0  0  0  0  0  0
   -0.1022   -0.7410    0.7528 C   0  0  0  0  0  0  0  0  0  0  0  0
    0.6513   -0.0048   -0.1360 C   0  0  0  0  0  0  0  0  0  0  0  0
    2.0299    0.0347   -0.0043 O   0  0  0  0  0  0  0  0  0  0  0  0
    2.6649   -0.6787    1.0399 C   0  0  0  0  0  0  0  0  0  0  0  0
    4.1248   -0.4652    0.9497 C   0  0  0  0  0  0  0  0  0  0  0  0
    4.6901    0.3212   -0.0309 C   0  0  0  0  0  0  0  0  0  0  0  0
    6.0536    0.5196   -0.1139 C   0  0  0  0  0  0  0  0  0  0  0  0
    6.9056   -0.0696    0.7926 C   0  0  0  0  0  0  0  0  0  0  0  0
    8.6493    0.1612    0.7174 Cl  0  0  0  0  0  0  0  0  0  0  0  0
    6.3639   -0.8594    1.7810 C   0  0  0  0  0  0  0  0  0  0  0  0
    4.9884   -1.0551    1.8587 C   0  0  0  0  0  0  0  0  0  0  0  0
    4.2860   -2.0503    3.1006 Cl  0  0  0  0  0  0  0  0  0  0  0  0
    0.0180    0.6821   -1.1442 C   0  0  0  0  0  0  0  0  0  0  0  0
    0.7597    1.4400   -2.0640 O   0  0  0  0  0  0  0  0  0  0  0  0
    0.0498    2.1222   -3.0764 C   0  0  0  0  0  0  0  0  0  0  0  0
   -1.3560    0.5993   -1.2169 C   0  0  0  0  0  0  0  0  0  0  0  0
  1  2  1  0
  2  3  1  0
  3  4  2  0
  4  5  1  0
  5  6  1  0
  5  7  2  0
  7  8  1  0
  8  9  1  0
  8 10  2  0
 10 11  1  0
 11 12  2  0
 12 13  1  0
 13 14  2  0
 14 15  1  0
 15 16  1  0
 16 17  1  0
 17 18  2  0
 18 19  1  0
 19 20  2  0
 20 21  1  0
 20 22  1  0
 22 23  2  0
 23 24  1  0
 14 25  1  0
 25 26  1  0
 26 27  1  0
 25 28  2  0
 10  3  1  0
 28 11  1  0
 23 17  1  0
M  END
>  <zinc_id>  (281) 
ZINC000013472719

>  <ortholog_name>  (281) 
DRTS_PLAFK

>  <gene_name>  (281) 
DRTS_PLAFK

>  <affinity>  (281) 
7.37

>  <chembldocid>  (281) 
16871

>  <title>  (281) 
None

>  <reference.pubmed_id>  (281) 
11881993

>  <reference.doi>  (281) 
None

>  <reference.chembl_id>  (281) 
CHEMBL1135602

>  <reference.journal>  (281) 
J. Med. Chem.

>  <reference.year>  (281) 
2002

$$$$

     RDKit          3D

 28 30  0  0  0  0  0  0  0  0999 V2000
   -3.1863    2.7880    0.5858 C   0  0  0  0  0  0  0  0  0  0  0  0
   -3.8134    1.5788    1.2406 C   0  0  0  0  0  0  0  0  0  0  0  0
   -4.3798    0.6558    0.2243 C   0  0  0  0  0  0  0  0  0  0  0  0
   -5.7067    0.5804   -0.0026 N   0  0  0  0  0  0  0  0  0  0  0  0
   -6.2353   -0.2497   -0.9192 C   0  0  0  0  0  0  0  0  0  0  0  0
   -7.6377   -0.3071   -1.1365 N   0  0  0  0  0  0  0  0  0  0  0  0
   -5.4016   -1.0271   -1.6282 N   0  0  0  0  0  0  0  0  0  0  0  0
   -4.0817   -1.0153   -1.4678 C   0  0  0  0  0  0  0  0  0  0  0  0
   -3.1927   -1.8537   -2.2336 N   0  0  0  0  0  0  0  0  0  0  0  0
   -3.5614   -0.1455   -0.5111 C   0  0  0  0  0  0  0  0  0  0  0  0
   -2.1033   -0.1322   -0.3337 C   0  0  0  0  0  0  0  0  0  0  0  0
   -1.4772   -0.8282    0.6859 C   0  0  0  0  0  0  0  0  0  0  0  0
   -0.1022   -0.7410    0.7528 C   0  0  0  0  0  0  0  0  0  0  0  0
    0.6513   -0.0048   -0.1360 C   0  0  0  0  0  0  0  0  0  0  0  0
    2.0299    0.0347   -0.0043 O   0  0  0  0  0  0  0  0  0  0  0  0
    2.6649   -0.6787    1.0399 C   0  0  0  0  0  0  0  0  0  0  0  0
    4.1248   -0.4652    0.9497 C   0  0  0  0  0  0  0  0  0  0  0  0
    4.6901    0.3212   -0.0309 C   0  0  0  0  0  0  0  0  0  0  0  0
    6.0536    0.5196   -0.1139 C   0  0  0  0  0  0  0  0  0  0  0  0
    6.9056   -0.0696    0.7926 C   0  0  0  0  0  0  0  0  0  0  0  0
    8.6493    0.1612    0.7174 Cl  0  0  0  0  0  0  0  0  0  0  0  0
    6.3639   -0.8594    1.7810 C   0  0  0  0  0  0  0  0  0  0  0  0
    4.9884   -1.0551    1.8587 C   0  0  0  0  0  0  0  0  0  0  0  0
    4.2860   -2.0503    3.1006 Cl  0  0  0  0  0  0  0  0  0  0  0  0
    0.0180    0.6821   -1.1442 C   0  0  0  0  0  0  0  0  0  0  0  0
    0.7597    1.4400   -2.0640 O   0  0  0  0  0  0  0  0  0  0  0  0
    0.0498    2.1222   -3.0764 C   0  0  0  0  0  0  0  0  0  0  0  0
   -1.3560    0.5993   -1.2169 C   0  0  0  0  0  0  0  0  0  0  0  0
  1  2  1  0
  2  3  1  0
  3  4  2  0
  4  5  1  0
  5  6  1  0
  5  7  2  0
  7  8  1  0
  8  9  1  0
  8 10  2  0
 10 11  1  0
 11 12  2  0
 12 13  1  0
 13 14  2  0
 14 15  1  0
 15 16  1  0
 16 17  1  0
 17 18  2  0
 18 19  1  0
 19 20  2  0
 20 21  1  0
 20 22  1  0
 22 23  2  0
 23 24  1  0
 14 25  1  0
 25 26  1  0
 26 27  1  0
 25 28  2  0
 10  3  1  0
 28 11  1  0
 23 17  1  0
M  END
>  <zinc_id>  (282) 
ZINC000013472719

>  <ortholog_name>  (282) 
DRTS_PLAFK

>  <gene_name>  (282) 
DRTS_PLAFK

>  <affinity>  (282) 
8.02

>  <chembldocid>  (282) 
21047

>  <title>  (282) 
None

>  <reference.pubmed_id>  (282) 
15293997

>  <reference.doi>  (282) 
None

>  <reference.chembl_id>  (282) 
CHEMBL1138679

>  <reference.journal>  (282) 
J. Med. Chem.

>  <reference.year>  (282) 
2004

$$$$

     RDKit          3D

 21 22  0  0  0  0  0  0  0  0999 V2000
    4.8576   -0.7670    1.4658 C   0  0  0  0  0  0  0  0  0  0  0  0
    4.9948   -0.1773    0.0890 C   0  0  0  0  0  0  0  0  0  0  0  0
    3.9479   -0.6187   -0.7430 O   0  0  0  0  0  0  0  0  0  0  0  0
    2.6139   -0.3986   -0.5023 C   0  0  0  0  0  0  0  0  0  0  0  0
    2.0277    0.7569   -0.9967 C   0  0  0  0  0  0  0  0  0  0  0  0
    3.0922    1.9928   -1.9894 Br  0  0  0  0  0  0  0  0  0  0  0  0
    0.7015    0.9493   -0.7427 C   0  0  0  0  0  0  0  0  0  0  0  0
   -0.0750    0.0368   -0.0133 C   0  0  0  0  0  0  0  0  0  0  0  0
   -1.4931    0.3737    0.1610 C   0  0  0  0  0  0  0  0  0  0  0  0
   -1.9277    1.3616    1.0260 C   0  0  0  0  0  0  0  0  0  0  0  0
   -0.9303    2.0447    1.7716 N   0  0  0  0  0  0  0  0  0  0  0  0
   -3.2447    1.6530    1.1419 N   0  0  0  0  0  0  0  0  0  0  0  0
   -4.1803    1.0123    0.4381 C   0  0  0  0  0  0  0  0  0  0  0  0
   -5.5737    1.3451    0.5800 N   0  0  0  0  0  0  0  0  0  0  0  0
   -3.7852    0.0382   -0.4168 N   0  0  0  0  0  0  0  0  0  0  0  0
   -2.4614   -0.2840   -0.5604 C   0  0  0  0  0  0  0  0  0  0  0  0
   -2.0357   -1.3674   -1.4990 C   0  0  0  0  0  0  0  0  0  0  0  0
   -1.6776   -2.6444   -0.7546 C   0  0  0  0  0  0  0  0  0  0  0  0
    0.5057   -1.1101    0.4775 C   0  0  0  0  0  0  0  0  0  0  0  0
    1.8687   -1.3136    0.2199 C   0  0  0  0  0  0  0  0  0  0  0  0
    2.7745   -2.8831    0.8476 Br  0  0  0  0  0  0  0  0  0  0  0  0
  1  2  1  0
  2  3  1  0
  3  4  1  0
  4  5  2  0
  5  6  1  0
  5  7  1  0
  7  8  2  0
  8  9  1  0
  9 10  2  0
 10 11  1  0
 10 12  1  0
 12 13  2  0
 13 14  1  0
 13 15  1  0
 15 16  2  0
 16 17  1  0
 17 18  1  0
  8 19  1  0
 19 20  2  0
 20 21  1  0
 20  4  1  0
 16  9  1  0
M  END
>  <zinc_id>  (283) 
ZINC000013472720

>  <ortholog_name>  (283) 
DRTS_PLAFK

>  <gene_name>  (283) 
DRTS_PLAFK

>  <affinity>  (283) 
7.43

>  <chembldocid>  (283) 
21047

>  <title>  (283) 
None

>  <reference.pubmed_id>  (283) 
15293997

>  <reference.doi>  (283) 
None

>  <reference.chembl_id>  (283) 
CHEMBL1138679

>  <reference.journal>  (283) 
J. Med. Chem.

>  <reference.year>  (283) 
2004

$$$$

     RDKit          3D

 21 22  0  0  0  0  0  0  0  0999 V2000
    4.8576   -0.7670    1.4658 C   0  0  0  0  0  0  0  0  0  0  0  0
    4.9948   -0.1773    0.0890 C   0  0  0  0  0  0  0  0  0  0  0  0
    3.9479   -0.6187   -0.7430 O   0  0  0  0  0  0  0  0  0  0  0  0
    2.6139   -0.3986   -0.5023 C   0  0  0  0  0  0  0  0  0  0  0  0
    2.0277    0.7569   -0.9967 C   0  0  0  0  0  0  0  0  0  0  0  0
    3.0922    1.9928   -1.9894 Br  0  0  0  0  0  0  0  0  0  0  0  0
    0.7015    0.9493   -0.7427 C   0  0  0  0  0  0  0  0  0  0  0  0
   -0.0750    0.0368   -0.0133 C   0  0  0  0  0  0  0  0  0  0  0  0
   -1.4931    0.3737    0.1610 C   0  0  0  0  0  0  0  0  0  0  0  0
   -1.9277    1.3616    1.0260 C   0  0  0  0  0  0  0  0  0  0  0  0
   -0.9303    2.0447    1.7716 N   0  0  0  0  0  0  0  0  0  0  0  0
   -3.2447    1.6530    1.1419 N   0  0  0  0  0  0  0  0  0  0  0  0
   -4.1803    1.0123    0.4381 C   0  0  0  0  0  0  0  0  0  0  0  0
   -5.5737    1.3451    0.5800 N   0  0  0  0  0  0  0  0  0  0  0  0
   -3.7852    0.0382   -0.4168 N   0  0  0  0  0  0  0  0  0  0  0  0
   -2.4614   -0.2840   -0.5604 C   0  0  0  0  0  0  0  0  0  0  0  0
   -2.0357   -1.3674   -1.4990 C   0  0  0  0  0  0  0  0  0  0  0  0
   -1.6776   -2.6444   -0.7546 C   0  0  0  0  0  0  0  0  0  0  0  0
    0.5057   -1.1101    0.4775 C   0  0  0  0  0  0  0  0  0  0  0  0
    1.8687   -1.3136    0.2199 C   0  0  0  0  0  0  0  0  0  0  0  0
    2.7745   -2.8831    0.8476 Br  0  0  0  0  0  0  0  0  0  0  0  0
  1  2  1  0
  2  3  1  0
  3  4  1  0
  4  5  2  0
  5  6  1  0
  5  7  1  0
  7  8  2  0
  8  9  1  0
  9 10  2  0
 10 11  1  0
 10 12  1  0
 12 13  2  0
 13 14  1  0
 13 15  1  0
 15 16  2  0
 16 17  1  0
 17 18  1  0
  8 19  1  0
 19 20  2  0
 20 21  1  0
 20  4  1  0
 16  9  1  0
M  END
>  <zinc_id>  (284) 
ZINC000013472720

>  <ortholog_name>  (284) 
DRTS_PLAFK

>  <gene_name>  (284) 
DRTS_PLAFK

>  <affinity>  (284) 
6.38

>  <chembldocid>  (284) 
16871

>  <title>  (284) 
None

>  <reference.pubmed_id>  (284) 
11881993

>  <reference.doi>  (284) 
None

>  <reference.chembl_id>  (284) 
CHEMBL1135602

>  <reference.journal>  (284) 
J. Med. Chem.

>  <reference.year>  (284) 
2002

$$$$

     RDKit          3D

 21 22  0  0  0  0  0  0  0  0999 V2000
    4.8576   -0.7670    1.4658 C   0  0  0  0  0  0  0  0  0  0  0  0
    4.9948   -0.1773    0.0890 C   0  0  0  0  0  0  0  0  0  0  0  0
    3.9479   -0.6187   -0.7430 O   0  0  0  0  0  0  0  0  0  0  0  0
    2.6139   -0.3986   -0.5023 C   0  0  0  0  0  0  0  0  0  0  0  0
    2.0277    0.7569   -0.9967 C   0  0  0  0  0  0  0  0  0  0  0  0
    3.0922    1.9928   -1.9894 Br  0  0  0  0  0  0  0  0  0  0  0  0
    0.7015    0.9493   -0.7427 C   0  0  0  0  0  0  0  0  0  0  0  0
   -0.0750    0.0368   -0.0133 C   0  0  0  0  0  0  0  0  0  0  0  0
   -1.4931    0.3737    0.1610 C   0  0  0  0  0  0  0  0  0  0  0  0
   -1.9277    1.3616    1.0260 C   0  0  0  0  0  0  0  0  0  0  0  0
   -0.9303    2.0447    1.7716 N   0  0  0  0  0  0  0  0  0  0  0  0
   -3.2447    1.6530    1.1419 N   0  0  0  0  0  0  0  0  0  0  0  0
   -4.1803    1.0123    0.4381 C   0  0  0  0  0  0  0  0  0  0  0  0
   -5.5737    1.3451    0.5800 N   0  0  0  0  0  0  0  0  0  0  0  0
   -3.7852    0.0382   -0.4168 N   0  0  0  0  0  0  0  0  0  0  0  0
   -2.4614   -0.2840   -0.5604 C   0  0  0  0  0  0  0  0  0  0  0  0
   -2.0357   -1.3674   -1.4990 C   0  0  0  0  0  0  0  0  0  0  0  0
   -1.6776   -2.6444   -0.7546 C   0  0  0  0  0  0  0  0  0  0  0  0
    0.5057   -1.1101    0.4775 C   0  0  0  0  0  0  0  0  0  0  0  0
    1.8687   -1.3136    0.2199 C   0  0  0  0  0  0  0  0  0  0  0  0
    2.7745   -2.8831    0.8476 Br  0  0  0  0  0  0  0  0  0  0  0  0
  1  2  1  0
  2  3  1  0
  3  4  1  0
  4  5  2  0
  5  6  1  0
  5  7  1  0
  7  8  2  0
  8  9  1  0
  9 10  2  0
 10 11  1  0
 10 12  1  0
 12 13  2  0
 13 14  1  0
 13 15  1  0
 15 16  2  0
 16 17  1  0
 17 18  1  0
  8 19  1  0
 19 20  2  0
 20 21  1  0
 20  4  1  0
 16  9  1  0
M  END
>  <zinc_id>  (285) 
ZINC000013472720

>  <ortholog_name>  (285) 
DRTS_PLAFK

>  <gene_name>  (285) 
DRTS_PLAFK

>  <affinity>  (285) 
6.27

>  <chembldocid>  (285) 
16871

>  <title>  (285) 
None

>  <reference.pubmed_id>  (285) 
11881993

>  <reference.doi>  (285) 
None

>  <reference.chembl_id>  (285) 
CHEMBL1135602

>  <reference.journal>  (285) 
J. Med. Chem.

>  <reference.year>  (285) 
2002

$$$$

     RDKit          3D

 21 22  0  0  0  0  0  0  0  0999 V2000
    4.8576   -0.7670    1.4658 C   0  0  0  0  0  0  0  0  0  0  0  0
    4.9948   -0.1773    0.0890 C   0  0  0  0  0  0  0  0  0  0  0  0
    3.9479   -0.6187   -0.7430 O   0  0  0  0  0  0  0  0  0  0  0  0
    2.6139   -0.3986   -0.5023 C   0  0  0  0  0  0  0  0  0  0  0  0
    2.0277    0.7569   -0.9967 C   0  0  0  0  0  0  0  0  0  0  0  0
    3.0922    1.9928   -1.9894 Br  0  0  0  0  0  0  0  0  0  0  0  0
    0.7015    0.9493   -0.7427 C   0  0  0  0  0  0  0  0  0  0  0  0
   -0.0750    0.0368   -0.0133 C   0  0  0  0  0  0  0  0  0  0  0  0
   -1.4931    0.3737    0.1610 C   0  0  0  0  0  0  0  0  0  0  0  0
   -1.9277    1.3616    1.0260 C   0  0  0  0  0  0  0  0  0  0  0  0
   -0.9303    2.0447    1.7716 N   0  0  0  0  0  0  0  0  0  0  0  0
   -3.2447    1.6530    1.1419 N   0  0  0  0  0  0  0  0  0  0  0  0
   -4.1803    1.0123    0.4381 C   0  0  0  0  0  0  0  0  0  0  0  0
   -5.5737    1.3451    0.5800 N   0  0  0  0  0  0  0  0  0  0  0  0
   -3.7852    0.0382   -0.4168 N   0  0  0  0  0  0  0  0  0  0  0  0
   -2.4614   -0.2840   -0.5604 C   0  0  0  0  0  0  0  0  0  0  0  0
   -2.0357   -1.3674   -1.4990 C   0  0  0  0  0  0  0  0  0  0  0  0
   -1.6776   -2.6444   -0.7546 C   0  0  0  0  0  0  0  0  0  0  0  0
    0.5057   -1.1101    0.4775 C   0  0  0  0  0  0  0  0  0  0  0  0
    1.8687   -1.3136    0.2199 C   0  0  0  0  0  0  0  0  0  0  0  0
    2.7745   -2.8831    0.8476 Br  0  0  0  0  0  0  0  0  0  0  0  0
  1  2  1  0
  2  3  1  0
  3  4  1  0
  4  5  2  0
  5  6  1  0
  5  7  1  0
  7  8  2  0
  8  9  1  0
  9 10  2  0
 10 11  1  0
 10 12  1  0
 12 13  2  0
 13 14  1  0
 13 15  1  0
 15 16  2  0
 16 17  1  0
 17 18  1  0
  8 19  1  0
 19 20  2  0
 20 21  1  0
 20  4  1  0
 16  9  1  0
M  END
>  <zinc_id>  (286) 
ZINC000013472720

>  <ortholog_name>  (286) 
DRTS_PLAFK

>  <gene_name>  (286) 
DRTS_PLAFK

>  <affinity>  (286) 
8.15

>  <chembldocid>  (286) 
16871

>  <title>  (286) 
None

>  <reference.pubmed_id>  (286) 
11881993

>  <reference.doi>  (286) 
None

>  <reference.chembl_id>  (286) 
CHEMBL1135602

>  <reference.journal>  (286) 
J. Med. Chem.

>  <reference.year>  (286) 
2002

$$$$

     RDKit          3D

 15 16  0  0  0  0  0  0  0  0999 V2000
   -4.7934    0.2134    0.7650 N   0  0  0  0  0  0  0  0  0  0  0  0
   -3.4018    0.1914    0.5212 C   0  0  0  0  0  0  0  0  0  0  0  0
   -2.8742    1.0699   -0.3441 N   0  0  0  0  0  0  0  0  0  0  0  0
   -1.5416    1.0405   -0.5703 C   0  0  0  0  0  0  0  0  0  0  0  0
   -0.7163    0.1413    0.0575 C   0  0  0  0  0  0  0  0  0  0  0  0
    0.7036    0.1590   -0.2263 C   0  0  0  0  0  0  0  0  0  0  0  0
    1.4117   -1.0161   -0.4612 C   0  0  0  0  0  0  0  0  0  0  0  0
    2.7598   -0.9877   -0.7297 C   0  0  0  0  0  0  0  0  0  0  0  0
    3.4783    0.1864   -0.7815 C   0  0  0  0  0  0  0  0  0  0  0  0
    5.2048    0.1994   -1.1272 Cl  0  0  0  0  0  0  0  0  0  0  0  0
    2.7910    1.3588   -0.5510 C   0  0  0  0  0  0  0  0  0  0  0  0
    1.4407    1.3329   -0.2818 C   0  0  0  0  0  0  0  0  0  0  0  0
   -1.2894   -0.7438    0.9372 C   0  0  0  0  0  0  0  0  0  0  0  0
   -0.5441   -1.7163    1.6438 N   0  0  0  0  0  0  0  0  0  0  0  0
   -2.6292   -0.6959    1.1485 N   0  0  0  0  0  0  0  0  0  0  0  0
  1  2  1  0
  2  3  2  0
  3  4  1  0
  4  5  2  0
  5  6  1  0
  6  7  2  0
  7  8  1  0
  8  9  2  0
  9 10  1  0
  9 11  1  0
 11 12  2  0
  5 13  1  0
 13 14  1  0
 13 15  2  0
 15  2  1  0
 12  6  1  0
M  END
>  <zinc_id>  (287) 
ZINC000013472721

>  <ortholog_name>  (287) 
DRTS_PLAFK

>  <gene_name>  (287) 
DRTS_PLAFK

>  <affinity>  (287) 
9.13

>  <chembldocid>  (287) 
21047

>  <title>  (287) 
None

>  <reference.pubmed_id>  (287) 
15293997

>  <reference.doi>  (287) 
None

>  <reference.chembl_id>  (287) 
CHEMBL1138679

>  <reference.journal>  (287) 
J. Med. Chem.

>  <reference.year>  (287) 
2004

$$$$

     RDKit          3D

 15 16  0  0  0  0  0  0  0  0999 V2000
   -4.7934    0.2134    0.7650 N   0  0  0  0  0  0  0  0  0  0  0  0
   -3.4018    0.1914    0.5212 C   0  0  0  0  0  0  0  0  0  0  0  0
   -2.8742    1.0699   -0.3441 N   0  0  0  0  0  0  0  0  0  0  0  0
   -1.5416    1.0405   -0.5703 C   0  0  0  0  0  0  0  0  0  0  0  0
   -0.7163    0.1413    0.0575 C   0  0  0  0  0  0  0  0  0  0  0  0
    0.7036    0.1590   -0.2263 C   0  0  0  0  0  0  0  0  0  0  0  0
    1.4117   -1.0161   -0.4612 C   0  0  0  0  0  0  0  0  0  0  0  0
    2.7598   -0.9877   -0.7297 C   0  0  0  0  0  0  0  0  0  0  0  0
    3.4783    0.1864   -0.7815 C   0  0  0  0  0  0  0  0  0  0  0  0
    5.2048    0.1994   -1.1272 Cl  0  0  0  0  0  0  0  0  0  0  0  0
    2.7910    1.3588   -0.5510 C   0  0  0  0  0  0  0  0  0  0  0  0
    1.4407    1.3329   -0.2818 C   0  0  0  0  0  0  0  0  0  0  0  0
   -1.2894   -0.7438    0.9372 C   0  0  0  0  0  0  0  0  0  0  0  0
   -0.5441   -1.7163    1.6438 N   0  0  0  0  0  0  0  0  0  0  0  0
   -2.6292   -0.6959    1.1485 N   0  0  0  0  0  0  0  0  0  0  0  0
  1  2  1  0
  2  3  2  0
  3  4  1  0
  4  5  2  0
  5  6  1  0
  6  7  2  0
  7  8  1  0
  8  9  2  0
  9 10  1  0
  9 11  1  0
 11 12  2  0
  5 13  1  0
 13 14  1  0
 13 15  2  0
 15  2  1  0
 12  6  1  0
M  END
>  <zinc_id>  (288) 
ZINC000013472721

>  <ortholog_name>  (288) 
DRTS_PLAFK

>  <gene_name>  (288) 
DRTS_PLAFK

>  <affinity>  (288) 
8.62

>  <chembldocid>  (288) 
16871

>  <title>  (288) 
None

>  <reference.pubmed_id>  (288) 
11881993

>  <reference.doi>  (288) 
None

>  <reference.chembl_id>  (288) 
CHEMBL1135602

>  <reference.journal>  (288) 
J. Med. Chem.

>  <reference.year>  (288) 
2002

$$$$

     RDKit          3D

 15 16  0  0  0  0  0  0  0  0999 V2000
   -4.7934    0.2134    0.7650 N   0  0  0  0  0  0  0  0  0  0  0  0
   -3.4018    0.1914    0.5212 C   0  0  0  0  0  0  0  0  0  0  0  0
   -2.8742    1.0699   -0.3441 N   0  0  0  0  0  0  0  0  0  0  0  0
   -1.5416    1.0405   -0.5703 C   0  0  0  0  0  0  0  0  0  0  0  0
   -0.7163    0.1413    0.0575 C   0  0  0  0  0  0  0  0  0  0  0  0
    0.7036    0.1590   -0.2263 C   0  0  0  0  0  0  0  0  0  0  0  0
    1.4117   -1.0161   -0.4612 C   0  0  0  0  0  0  0  0  0  0  0  0
    2.7598   -0.9877   -0.7297 C   0  0  0  0  0  0  0  0  0  0  0  0
    3.4783    0.1864   -0.7815 C   0  0  0  0  0  0  0  0  0  0  0  0
    5.2048    0.1994   -1.1272 Cl  0  0  0  0  0  0  0  0  0  0  0  0
    2.7910    1.3588   -0.5510 C   0  0  0  0  0  0  0  0  0  0  0  0
    1.4407    1.3329   -0.2818 C   0  0  0  0  0  0  0  0  0  0  0  0
   -1.2894   -0.7438    0.9372 C   0  0  0  0  0  0  0  0  0  0  0  0
   -0.5441   -1.7163    1.6438 N   0  0  0  0  0  0  0  0  0  0  0  0
   -2.6292   -0.6959    1.1485 N   0  0  0  0  0  0  0  0  0  0  0  0
  1  2  1  0
  2  3  2  0
  3  4  1  0
  4  5  2  0
  5  6  1  0
  6  7  2  0
  7  8  1  0
  8  9  2  0
  9 10  1  0
  9 11  1  0
 11 12  2  0
  5 13  1  0
 13 14  1  0
 13 15  2  0
 15  2  1  0
 12  6  1  0
M  END
>  <zinc_id>  (289) 
ZINC000013472721

>  <ortholog_name>  (289) 
DRTS_PLAFK

>  <gene_name>  (289) 
DRTS_PLAFK

>  <affinity>  (289) 
6.43

>  <chembldocid>  (289) 
16871

>  <title>  (289) 
None

>  <reference.pubmed_id>  (289) 
11881993

>  <reference.doi>  (289) 
None

>  <reference.chembl_id>  (289) 
CHEMBL1135602

>  <reference.journal>  (289) 
J. Med. Chem.

>  <reference.year>  (289) 
2002

$$$$

     RDKit          3D

 15 16  0  0  0  0  0  0  0  0999 V2000
   -4.7934    0.2134    0.7650 N   0  0  0  0  0  0  0  0  0  0  0  0
   -3.4018    0.1914    0.5212 C   0  0  0  0  0  0  0  0  0  0  0  0
   -2.8742    1.0699   -0.3441 N   0  0  0  0  0  0  0  0  0  0  0  0
   -1.5416    1.0405   -0.5703 C   0  0  0  0  0  0  0  0  0  0  0  0
   -0.7163    0.1413    0.0575 C   0  0  0  0  0  0  0  0  0  0  0  0
    0.7036    0.1590   -0.2263 C   0  0  0  0  0  0  0  0  0  0  0  0
    1.4117   -1.0161   -0.4612 C   0  0  0  0  0  0  0  0  0  0  0  0
    2.7598   -0.9877   -0.7297 C   0  0  0  0  0  0  0  0  0  0  0  0
    3.4783    0.1864   -0.7815 C   0  0  0  0  0  0  0  0  0  0  0  0
    5.2048    0.1994   -1.1272 Cl  0  0  0  0  0  0  0  0  0  0  0  0
    2.7910    1.3588   -0.5510 C   0  0  0  0  0  0  0  0  0  0  0  0
    1.4407    1.3329   -0.2818 C   0  0  0  0  0  0  0  0  0  0  0  0
   -1.2894   -0.7438    0.9372 C   0  0  0  0  0  0  0  0  0  0  0  0
   -0.5441   -1.7163    1.6438 N   0  0  0  0  0  0  0  0  0  0  0  0
   -2.6292   -0.6959    1.1485 N   0  0  0  0  0  0  0  0  0  0  0  0
  1  2  1  0
  2  3  2  0
  3  4  1  0
  4  5  2  0
  5  6  1  0
  6  7  2  0
  7  8  1  0
  8  9  2  0
  9 10  1  0
  9 11  1  0
 11 12  2  0
  5 13  1  0
 13 14  1  0
 13 15  2  0
 15  2  1  0
 12  6  1  0
M  END
>  <zinc_id>  (290) 
ZINC000013472721

>  <ortholog_name>  (290) 
DRTS_PLAFK

>  <gene_name>  (290) 
DRTS_PLAFK

>  <affinity>  (290) 
6.26

>  <chembldocid>  (290) 
16871

>  <title>  (290) 
None

>  <reference.pubmed_id>  (290) 
11881993

>  <reference.doi>  (290) 
None

>  <reference.chembl_id>  (290) 
CHEMBL1135602

>  <reference.journal>  (290) 
J. Med. Chem.

>  <reference.year>  (290) 
2002

$$$$

     RDKit          3D

 22 23  0  0  0  0  0  0  0  0999 V2000
    6.4725   -0.5988    0.5536 C   0  0  0  0  0  0  0  0  0  0  0  0
    5.0893   -0.6120    0.2632 O   0  0  0  0  0  0  0  0  0  0  0  0
    4.3179    0.5327    0.1300 C   0  0  0  0  0  0  0  0  0  0  0  0
    4.8865    1.6525    0.2769 O   0  0  0  0  0  0  0  0  0  0  0  0
    2.8793    0.5379   -0.1706 C   0  0  0  0  0  0  0  0  0  0  0  0
    2.0465    0.7337    1.0727 C   0  0  0  0  0  0  0  0  0  0  0  0
    0.5895    0.7330    0.7204 C   0  0  0  0  0  0  0  0  0  0  0  0
    0.1570   -0.5382    0.0843 C   0  0  0  0  0  0  0  0  0  0  0  0
    1.0026   -1.5668   -0.1362 N   0  0  0  0  0  0  0  0  0  0  0  0
    0.6203   -2.7223   -0.7122 C   0  0  0  0  0  0  0  0  0  0  0  0
    1.5376   -3.7922   -0.9325 N   0  0  0  0  0  0  0  0  0  0  0  0
   -0.6745   -2.8181   -1.0714 N   0  0  0  0  0  0  0  0  0  0  0  0
   -1.5643   -1.8213   -0.8748 C   0  0  0  0  0  0  0  0  0  0  0  0
   -2.9207   -1.9993   -1.2831 N   0  0  0  0  0  0  0  0  0  0  0  0
   -1.1691   -0.6385   -0.2841 C   0  0  0  0  0  0  0  0  0  0  0  0
   -2.1203    0.4459   -0.0633 C   0  0  0  0  0  0  0  0  0  0  0  0
   -2.7248    0.6634    1.1497 C   0  0  0  0  0  0  0  0  0  0  0  0
   -3.6161    1.7042    1.3066 C   0  0  0  0  0  0  0  0  0  0  0  0
   -3.9415    2.5633    0.2797 C   0  0  0  0  0  0  0  0  0  0  0  0
   -5.0883    3.8864    0.5181 Cl  0  0  0  0  0  0  0  0  0  0  0  0
   -3.3387    2.3525   -0.9430 C   0  0  0  0  0  0  0  0  0  0  0  0
   -2.4407    1.3020   -1.0977 C   0  0  0  0  0  0  0  0  0  0  0  0
  1  2  1  0
  2  3  1  0
  3  4  2  0
  3  5  1  0
  5  6  1  0
  6  7  1  0
  7  8  1  0
  8  9  2  0
  9 10  1  0
 10 11  1  0
 10 12  2  0
 12 13  1  0
 13 14  1  0
 13 15  2  0
 15 16  1  0
 16 17  2  0
 17 18  1  0
 18 19  2  0
 19 20  1  0
 19 21  1  0
 21 22  2  0
 15  8  1  0
 22 16  1  0
M  END
>  <zinc_id>  (291) 
ZINC000013472722

>  <ortholog_name>  (291) 
DRTS_PLAFK

>  <gene_name>  (291) 
DRTS_PLAFK

>  <affinity>  (291) 
9.85

>  <chembldocid>  (291) 
21047

>  <title>  (291) 
None

>  <reference.pubmed_id>  (291) 
15293997

>  <reference.doi>  (291) 
None

>  <reference.chembl_id>  (291) 
CHEMBL1138679

>  <reference.journal>  (291) 
J. Med. Chem.

>  <reference.year>  (291) 
2004

$$$$

     RDKit          3D

 22 23  0  0  0  0  0  0  0  0999 V2000
    6.4725   -0.5988    0.5536 C   0  0  0  0  0  0  0  0  0  0  0  0
    5.0893   -0.6120    0.2632 O   0  0  0  0  0  0  0  0  0  0  0  0
    4.3179    0.5327    0.1300 C   0  0  0  0  0  0  0  0  0  0  0  0
    4.8865    1.6525    0.2769 O   0  0  0  0  0  0  0  0  0  0  0  0
    2.8793    0.5379   -0.1706 C   0  0  0  0  0  0  0  0  0  0  0  0
    2.0465    0.7337    1.0727 C   0  0  0  0  0  0  0  0  0  0  0  0
    0.5895    0.7330    0.7204 C   0  0  0  0  0  0  0  0  0  0  0  0
    0.1570   -0.5382    0.0843 C   0  0  0  0  0  0  0  0  0  0  0  0
    1.0026   -1.5668   -0.1362 N   0  0  0  0  0  0  0  0  0  0  0  0
    0.6203   -2.7223   -0.7122 C   0  0  0  0  0  0  0  0  0  0  0  0
    1.5376   -3.7922   -0.9325 N   0  0  0  0  0  0  0  0  0  0  0  0
   -0.6745   -2.8181   -1.0714 N   0  0  0  0  0  0  0  0  0  0  0  0
   -1.5643   -1.8213   -0.8748 C   0  0  0  0  0  0  0  0  0  0  0  0
   -2.9207   -1.9993   -1.2831 N   0  0  0  0  0  0  0  0  0  0  0  0
   -1.1691   -0.6385   -0.2841 C   0  0  0  0  0  0  0  0  0  0  0  0
   -2.1203    0.4459   -0.0633 C   0  0  0  0  0  0  0  0  0  0  0  0
   -2.7248    0.6634    1.1497 C   0  0  0  0  0  0  0  0  0  0  0  0
   -3.6161    1.7042    1.3066 C   0  0  0  0  0  0  0  0  0  0  0  0
   -3.9415    2.5633    0.2797 C   0  0  0  0  0  0  0  0  0  0  0  0
   -5.0883    3.8864    0.5181 Cl  0  0  0  0  0  0  0  0  0  0  0  0
   -3.3387    2.3525   -0.9430 C   0  0  0  0  0  0  0  0  0  0  0  0
   -2.4407    1.3020   -1.0977 C   0  0  0  0  0  0  0  0  0  0  0  0
  1  2  1  0
  2  3  1  0
  3  4  2  0
  3  5  1  0
  5  6  1  0
  6  7  1  0
  7  8  1  0
  8  9  2  0
  9 10  1  0
 10 11  1  0
 10 12  2  0
 12 13  1  0
 13 14  1  0
 13 15  2  0
 15 16  1  0
 16 17  2  0
 17 18  1  0
 18 19  2  0
 19 20  1  0
 19 21  1  0
 21 22  2  0
 15  8  1  0
 22 16  1  0
M  END
>  <zinc_id>  (292) 
ZINC000013472722

>  <ortholog_name>  (292) 
DRTS_PLAFK

>  <gene_name>  (292) 
DRTS_PLAFK

>  <affinity>  (292) 
9.52

>  <chembldocid>  (292) 
16871

>  <title>  (292) 
None

>  <reference.pubmed_id>  (292) 
11881993

>  <reference.doi>  (292) 
None

>  <reference.chembl_id>  (292) 
CHEMBL1135602

>  <reference.journal>  (292) 
J. Med. Chem.

>  <reference.year>  (292) 
2002

$$$$

     RDKit          3D

 22 23  0  0  0  0  0  0  0  0999 V2000
    6.4725   -0.5988    0.5536 C   0  0  0  0  0  0  0  0  0  0  0  0
    5.0893   -0.6120    0.2632 O   0  0  0  0  0  0  0  0  0  0  0  0
    4.3179    0.5327    0.1300 C   0  0  0  0  0  0  0  0  0  0  0  0
    4.8865    1.6525    0.2769 O   0  0  0  0  0  0  0  0  0  0  0  0
    2.8793    0.5379   -0.1706 C   0  0  0  0  0  0  0  0  0  0  0  0
    2.0465    0.7337    1.0727 C   0  0  0  0  0  0  0  0  0  0  0  0
    0.5895    0.7330    0.7204 C   0  0  0  0  0  0  0  0  0  0  0  0
    0.1570   -0.5382    0.0843 C   0  0  0  0  0  0  0  0  0  0  0  0
    1.0026   -1.5668   -0.1362 N   0  0  0  0  0  0  0  0  0  0  0  0
    0.6203   -2.7223   -0.7122 C   0  0  0  0  0  0  0  0  0  0  0  0
    1.5376   -3.7922   -0.9325 N   0  0  0  0  0  0  0  0  0  0  0  0
   -0.6745   -2.8181   -1.0714 N   0  0  0  0  0  0  0  0  0  0  0  0
   -1.5643   -1.8213   -0.8748 C   0  0  0  0  0  0  0  0  0  0  0  0
   -2.9207   -1.9993   -1.2831 N   0  0  0  0  0  0  0  0  0  0  0  0
   -1.1691   -0.6385   -0.2841 C   0  0  0  0  0  0  0  0  0  0  0  0
   -2.1203    0.4459   -0.0633 C   0  0  0  0  0  0  0  0  0  0  0  0
   -2.7248    0.6634    1.1497 C   0  0  0  0  0  0  0  0  0  0  0  0
   -3.6161    1.7042    1.3066 C   0  0  0  0  0  0  0  0  0  0  0  0
   -3.9415    2.5633    0.2797 C   0  0  0  0  0  0  0  0  0  0  0  0
   -5.0883    3.8864    0.5181 Cl  0  0  0  0  0  0  0  0  0  0  0  0
   -3.3387    2.3525   -0.9430 C   0  0  0  0  0  0  0  0  0  0  0  0
   -2.4407    1.3020   -1.0977 C   0  0  0  0  0  0  0  0  0  0  0  0
  1  2  1  0
  2  3  1  0
  3  4  2  0
  3  5  1  0
  5  6  1  0
  6  7  1  0
  7  8  1  0
  8  9  2  0
  9 10  1  0
 10 11  1  0
 10 12  2  0
 12 13  1  0
 13 14  1  0
 13 15  2  0
 15 16  1  0
 16 17  2  0
 17 18  1  0
 18 19  2  0
 19 20  1  0
 19 21  1  0
 21 22  2  0
 15  8  1  0
 22 16  1  0
M  END
>  <zinc_id>  (293) 
ZINC000013472722

>  <ortholog_name>  (293) 
DRTS_PLAFK

>  <gene_name>  (293) 
DRTS_PLAFK

>  <affinity>  (293) 
9.52

>  <chembldocid>  (293) 
17662

>  <title>  (293) 
None

>  <reference.pubmed_id>  (293) 
14736247

>  <reference.doi>  (293) 
None

>  <reference.chembl_id>  (293) 
CHEMBL1138835

>  <reference.journal>  (293) 
J. Med. Chem.

>  <reference.year>  (293) 
2004

$$$$

     RDKit          3D

 22 23  0  0  0  0  0  0  0  0999 V2000
    6.4725   -0.5988    0.5536 C   0  0  0  0  0  0  0  0  0  0  0  0
    5.0893   -0.6120    0.2632 O   0  0  0  0  0  0  0  0  0  0  0  0
    4.3179    0.5327    0.1300 C   0  0  0  0  0  0  0  0  0  0  0  0
    4.8865    1.6525    0.2769 O   0  0  0  0  0  0  0  0  0  0  0  0
    2.8793    0.5379   -0.1706 C   0  0  0  0  0  0  0  0  0  0  0  0
    2.0465    0.7337    1.0727 C   0  0  0  0  0  0  0  0  0  0  0  0
    0.5895    0.7330    0.7204 C   0  0  0  0  0  0  0  0  0  0  0  0
    0.1570   -0.5382    0.0843 C   0  0  0  0  0  0  0  0  0  0  0  0
    1.0026   -1.5668   -0.1362 N   0  0  0  0  0  0  0  0  0  0  0  0
    0.6203   -2.7223   -0.7122 C   0  0  0  0  0  0  0  0  0  0  0  0
    1.5376   -3.7922   -0.9325 N   0  0  0  0  0  0  0  0  0  0  0  0
   -0.6745   -2.8181   -1.0714 N   0  0  0  0  0  0  0  0  0  0  0  0
   -1.5643   -1.8213   -0.8748 C   0  0  0  0  0  0  0  0  0  0  0  0
   -2.9207   -1.9993   -1.2831 N   0  0  0  0  0  0  0  0  0  0  0  0
   -1.1691   -0.6385   -0.2841 C   0  0  0  0  0  0  0  0  0  0  0  0
   -2.1203    0.4459   -0.0633 C   0  0  0  0  0  0  0  0  0  0  0  0
   -2.7248    0.6634    1.1497 C   0  0  0  0  0  0  0  0  0  0  0  0
   -3.6161    1.7042    1.3066 C   0  0  0  0  0  0  0  0  0  0  0  0
   -3.9415    2.5633    0.2797 C   0  0  0  0  0  0  0  0  0  0  0  0
   -5.0883    3.8864    0.5181 Cl  0  0  0  0  0  0  0  0  0  0  0  0
   -3.3387    2.3525   -0.9430 C   0  0  0  0  0  0  0  0  0  0  0  0
   -2.4407    1.3020   -1.0977 C   0  0  0  0  0  0  0  0  0  0  0  0
  1  2  1  0
  2  3  1  0
  3  4  2  0
  3  5  1  0
  5  6  1  0
  6  7  1  0
  7  8  1  0
  8  9  2  0
  9 10  1  0
 10 11  1  0
 10 12  2  0
 12 13  1  0
 13 14  1  0
 13 15  2  0
 15 16  1  0
 16 17  2  0
 17 18  1  0
 18 19  2  0
 19 20  1  0
 19 21  1  0
 21 22  2  0
 15  8  1  0
 22 16  1  0
M  END
>  <zinc_id>  (294) 
ZINC000013472722

>  <ortholog_name>  (294) 
DRTS_PLAFK

>  <gene_name>  (294) 
DRTS_PLAFK

>  <affinity>  (294) 
6.84

>  <chembldocid>  (294) 
17662

>  <title>  (294) 
None

>  <reference.pubmed_id>  (294) 
14736247

>  <reference.doi>  (294) 
None

>  <reference.chembl_id>  (294) 
CHEMBL1138835

>  <reference.journal>  (294) 
J. Med. Chem.

>  <reference.year>  (294) 
2004

$$$$

     RDKit          3D

 22 23  0  0  0  0  0  0  0  0999 V2000
    6.4725   -0.5988    0.5536 C   0  0  0  0  0  0  0  0  0  0  0  0
    5.0893   -0.6120    0.2632 O   0  0  0  0  0  0  0  0  0  0  0  0
    4.3179    0.5327    0.1300 C   0  0  0  0  0  0  0  0  0  0  0  0
    4.8865    1.6525    0.2769 O   0  0  0  0  0  0  0  0  0  0  0  0
    2.8793    0.5379   -0.1706 C   0  0  0  0  0  0  0  0  0  0  0  0
    2.0465    0.7337    1.0727 C   0  0  0  0  0  0  0  0  0  0  0  0
    0.5895    0.7330    0.7204 C   0  0  0  0  0  0  0  0  0  0  0  0
    0.1570   -0.5382    0.0843 C   0  0  0  0  0  0  0  0  0  0  0  0
    1.0026   -1.5668   -0.1362 N   0  0  0  0  0  0  0  0  0  0  0  0
    0.6203   -2.7223   -0.7122 C   0  0  0  0  0  0  0  0  0  0  0  0
    1.5376   -3.7922   -0.9325 N   0  0  0  0  0  0  0  0  0  0  0  0
   -0.6745   -2.8181   -1.0714 N   0  0  0  0  0  0  0  0  0  0  0  0
   -1.5643   -1.8213   -0.8748 C   0  0  0  0  0  0  0  0  0  0  0  0
   -2.9207   -1.9993   -1.2831 N   0  0  0  0  0  0  0  0  0  0  0  0
   -1.1691   -0.6385   -0.2841 C   0  0  0  0  0  0  0  0  0  0  0  0
   -2.1203    0.4459   -0.0633 C   0  0  0  0  0  0  0  0  0  0  0  0
   -2.7248    0.6634    1.1497 C   0  0  0  0  0  0  0  0  0  0  0  0
   -3.6161    1.7042    1.3066 C   0  0  0  0  0  0  0  0  0  0  0  0
   -3.9415    2.5633    0.2797 C   0  0  0  0  0  0  0  0  0  0  0  0
   -5.0883    3.8864    0.5181 Cl  0  0  0  0  0  0  0  0  0  0  0  0
   -3.3387    2.3525   -0.9430 C   0  0  0  0  0  0  0  0  0  0  0  0
   -2.4407    1.3020   -1.0977 C   0  0  0  0  0  0  0  0  0  0  0  0
  1  2  1  0
  2  3  1  0
  3  4  2  0
  3  5  1  0
  5  6  1  0
  6  7  1  0
  7  8  1  0
  8  9  2  0
  9 10  1  0
 10 11  1  0
 10 12  2  0
 12 13  1  0
 13 14  1  0
 13 15  2  0
 15 16  1  0
 16 17  2  0
 17 18  1  0
 18 19  2  0
 19 20  1  0
 19 21  1  0
 21 22  2  0
 15  8  1  0
 22 16  1  0
M  END
>  <zinc_id>  (295) 
ZINC000013472722

>  <ortholog_name>  (295) 
DRTS_PLAFK

>  <gene_name>  (295) 
DRTS_PLAFK

>  <affinity>  (295) 
7.77

>  <chembldocid>  (295) 
16871

>  <title>  (295) 
None

>  <reference.pubmed_id>  (295) 
11881993

>  <reference.doi>  (295) 
None

>  <reference.chembl_id>  (295) 
CHEMBL1135602

>  <reference.journal>  (295) 
J. Med. Chem.

>  <reference.year>  (295) 
2002

$$$$

     RDKit          3D

 22 23  0  0  0  0  0  0  0  0999 V2000
    6.4725   -0.5988    0.5536 C   0  0  0  0  0  0  0  0  0  0  0  0
    5.0893   -0.6120    0.2632 O   0  0  0  0  0  0  0  0  0  0  0  0
    4.3179    0.5327    0.1300 C   0  0  0  0  0  0  0  0  0  0  0  0
    4.8865    1.6525    0.2769 O   0  0  0  0  0  0  0  0  0  0  0  0
    2.8793    0.5379   -0.1706 C   0  0  0  0  0  0  0  0  0  0  0  0
    2.0465    0.7337    1.0727 C   0  0  0  0  0  0  0  0  0  0  0  0
    0.5895    0.7330    0.7204 C   0  0  0  0  0  0  0  0  0  0  0  0
    0.1570   -0.5382    0.0843 C   0  0  0  0  0  0  0  0  0  0  0  0
    1.0026   -1.5668   -0.1362 N   0  0  0  0  0  0  0  0  0  0  0  0
    0.6203   -2.7223   -0.7122 C   0  0  0  0  0  0  0  0  0  0  0  0
    1.5376   -3.7922   -0.9325 N   0  0  0  0  0  0  0  0  0  0  0  0
   -0.6745   -2.8181   -1.0714 N   0  0  0  0  0  0  0  0  0  0  0  0
   -1.5643   -1.8213   -0.8748 C   0  0  0  0  0  0  0  0  0  0  0  0
   -2.9207   -1.9993   -1.2831 N   0  0  0  0  0  0  0  0  0  0  0  0
   -1.1691   -0.6385   -0.2841 C   0  0  0  0  0  0  0  0  0  0  0  0
   -2.1203    0.4459   -0.0633 C   0  0  0  0  0  0  0  0  0  0  0  0
   -2.7248    0.6634    1.1497 C   0  0  0  0  0  0  0  0  0  0  0  0
   -3.6161    1.7042    1.3066 C   0  0  0  0  0  0  0  0  0  0  0  0
   -3.9415    2.5633    0.2797 C   0  0  0  0  0  0  0  0  0  0  0  0
   -5.0883    3.8864    0.5181 Cl  0  0  0  0  0  0  0  0  0  0  0  0
   -3.3387    2.3525   -0.9430 C   0  0  0  0  0  0  0  0  0  0  0  0
   -2.4407    1.3020   -1.0977 C   0  0  0  0  0  0  0  0  0  0  0  0
  1  2  1  0
  2  3  1  0
  3  4  2  0
  3  5  1  0
  5  6  1  0
  6  7  1  0
  7  8  1  0
  8  9  2  0
  9 10  1  0
 10 11  1  0
 10 12  2  0
 12 13  1  0
 13 14  1  0
 13 15  2  0
 15 16  1  0
 16 17  2  0
 17 18  1  0
 18 19  2  0
 19 20  1  0
 19 21  1  0
 21 22  2  0
 15  8  1  0
 22 16  1  0
M  END
>  <zinc_id>  (296) 
ZINC000013472722

>  <ortholog_name>  (296) 
DRTS_PLAFK

>  <gene_name>  (296) 
DRTS_PLAFK

>  <affinity>  (296) 
7.56

>  <chembldocid>  (296) 
16871

>  <title>  (296) 
None

>  <reference.pubmed_id>  (296) 
11881993

>  <reference.doi>  (296) 
None

>  <reference.chembl_id>  (296) 
CHEMBL1135602

>  <reference.journal>  (296) 
J. Med. Chem.

>  <reference.year>  (296) 
2002

$$$$

     RDKit          3D

 22 23  0  0  0  0  0  0  0  0999 V2000
    6.4725   -0.5988    0.5536 C   0  0  0  0  0  0  0  0  0  0  0  0
    5.0893   -0.6120    0.2632 O   0  0  0  0  0  0  0  0  0  0  0  0
    4.3179    0.5327    0.1300 C   0  0  0  0  0  0  0  0  0  0  0  0
    4.8865    1.6525    0.2769 O   0  0  0  0  0  0  0  0  0  0  0  0
    2.8793    0.5379   -0.1706 C   0  0  0  0  0  0  0  0  0  0  0  0
    2.0465    0.7337    1.0727 C   0  0  0  0  0  0  0  0  0  0  0  0
    0.5895    0.7330    0.7204 C   0  0  0  0  0  0  0  0  0  0  0  0
    0.1570   -0.5382    0.0843 C   0  0  0  0  0  0  0  0  0  0  0  0
    1.0026   -1.5668   -0.1362 N   0  0  0  0  0  0  0  0  0  0  0  0
    0.6203   -2.7223   -0.7122 C   0  0  0  0  0  0  0  0  0  0  0  0
    1.5376   -3.7922   -0.9325 N   0  0  0  0  0  0  0  0  0  0  0  0
   -0.6745   -2.8181   -1.0714 N   0  0  0  0  0  0  0  0  0  0  0  0
   -1.5643   -1.8213   -0.8748 C   0  0  0  0  0  0  0  0  0  0  0  0
   -2.9207   -1.9993   -1.2831 N   0  0  0  0  0  0  0  0  0  0  0  0
   -1.1691   -0.6385   -0.2841 C   0  0  0  0  0  0  0  0  0  0  0  0
   -2.1203    0.4459   -0.0633 C   0  0  0  0  0  0  0  0  0  0  0  0
   -2.7248    0.6634    1.1497 C   0  0  0  0  0  0  0  0  0  0  0  0
   -3.6161    1.7042    1.3066 C   0  0  0  0  0  0  0  0  0  0  0  0
   -3.9415    2.5633    0.2797 C   0  0  0  0  0  0  0  0  0  0  0  0
   -5.0883    3.8864    0.5181 Cl  0  0  0  0  0  0  0  0  0  0  0  0
   -3.3387    2.3525   -0.9430 C   0  0  0  0  0  0  0  0  0  0  0  0
   -2.4407    1.3020   -1.0977 C   0  0  0  0  0  0  0  0  0  0  0  0
  1  2  1  0
  2  3  1  0
  3  4  2  0
  3  5  1  0
  5  6  1  0
  6  7  1  0
  7  8  1  0
  8  9  2  0
  9 10  1  0
 10 11  1  0
 10 12  2  0
 12 13  1  0
 13 14  1  0
 13 15  2  0
 15 16  1  0
 16 17  2  0
 17 18  1  0
 18 19  2  0
 19 20  1  0
 19 21  1  0
 21 22  2  0
 15  8  1  0
 22 16  1  0
M  END
>  <zinc_id>  (297) 
ZINC000013472722

>  <ortholog_name>  (297) 
DRTS_PLAFK

>  <gene_name>  (297) 
DRTS_PLAFK

>  <affinity>  (297) 
7.53

>  <chembldocid>  (297) 
17662

>  <title>  (297) 
None

>  <reference.pubmed_id>  (297) 
14736247

>  <reference.doi>  (297) 
None

>  <reference.chembl_id>  (297) 
CHEMBL1138835

>  <reference.journal>  (297) 
J. Med. Chem.

>  <reference.year>  (297) 
2004

$$$$

     RDKit          3D

 22 23  0  0  0  0  0  0  0  0999 V2000
    6.4725   -0.5988    0.5536 C   0  0  0  0  0  0  0  0  0  0  0  0
    5.0893   -0.6120    0.2632 O   0  0  0  0  0  0  0  0  0  0  0  0
    4.3179    0.5327    0.1300 C   0  0  0  0  0  0  0  0  0  0  0  0
    4.8865    1.6525    0.2769 O   0  0  0  0  0  0  0  0  0  0  0  0
    2.8793    0.5379   -0.1706 C   0  0  0  0  0  0  0  0  0  0  0  0
    2.0465    0.7337    1.0727 C   0  0  0  0  0  0  0  0  0  0  0  0
    0.5895    0.7330    0.7204 C   0  0  0  0  0  0  0  0  0  0  0  0
    0.1570   -0.5382    0.0843 C   0  0  0  0  0  0  0  0  0  0  0  0
    1.0026   -1.5668   -0.1362 N   0  0  0  0  0  0  0  0  0  0  0  0
    0.6203   -2.7223   -0.7122 C   0  0  0  0  0  0  0  0  0  0  0  0
    1.5376   -3.7922   -0.9325 N   0  0  0  0  0  0  0  0  0  0  0  0
   -0.6745   -2.8181   -1.0714 N   0  0  0  0  0  0  0  0  0  0  0  0
   -1.5643   -1.8213   -0.8748 C   0  0  0  0  0  0  0  0  0  0  0  0
   -2.9207   -1.9993   -1.2831 N   0  0  0  0  0  0  0  0  0  0  0  0
   -1.1691   -0.6385   -0.2841 C   0  0  0  0  0  0  0  0  0  0  0  0
   -2.1203    0.4459   -0.0633 C   0  0  0  0  0  0  0  0  0  0  0  0
   -2.7248    0.6634    1.1497 C   0  0  0  0  0  0  0  0  0  0  0  0
   -3.6161    1.7042    1.3066 C   0  0  0  0  0  0  0  0  0  0  0  0
   -3.9415    2.5633    0.2797 C   0  0  0  0  0  0  0  0  0  0  0  0
   -5.0883    3.8864    0.5181 Cl  0  0  0  0  0  0  0  0  0  0  0  0
   -3.3387    2.3525   -0.9430 C   0  0  0  0  0  0  0  0  0  0  0  0
   -2.4407    1.3020   -1.0977 C   0  0  0  0  0  0  0  0  0  0  0  0
  1  2  1  0
  2  3  1  0
  3  4  2  0
  3  5  1  0
  5  6  1  0
  6  7  1  0
  7  8  1  0
  8  9  2  0
  9 10  1  0
 10 11  1  0
 10 12  2  0
 12 13  1  0
 13 14  1  0
 13 15  2  0
 15 16  1  0
 16 17  2  0
 17 18  1  0
 18 19  2  0
 19 20  1  0
 19 21  1  0
 21 22  2  0
 15  8  1  0
 22 16  1  0
M  END
>  <zinc_id>  (298) 
ZINC000013472722

>  <ortholog_name>  (298) 
DRTS_PLAFK

>  <gene_name>  (298) 
DRTS_PLAFK

>  <affinity>  (298) 
6.44

>  <chembldocid>  (298) 
17662

>  <title>  (298) 
None

>  <reference.pubmed_id>  (298) 
14736247

>  <reference.doi>  (298) 
None

>  <reference.chembl_id>  (298) 
CHEMBL1138835

>  <reference.journal>  (298) 
J. Med. Chem.

>  <reference.year>  (298) 
2004

$$$$

     RDKit          3D

 24 26  0  0  0  0  0  0  0  0999 V2000
    0.7118   -4.3298    0.4914 N   0  0  0  0  0  0  0  0  0  0  0  0
   -0.0311   -3.1115    0.4285 C   0  0  0  0  0  0  0  0  0  0  0  0
   -1.3418   -3.2026    0.1818 N   0  0  0  0  0  0  0  0  0  0  0  0
   -2.0555   -2.0640    0.1092 C   0  0  0  0  0  0  0  0  0  0  0  0
   -3.4571   -2.1664   -0.1427 N   0  0  0  0  0  0  0  0  0  0  0  0
   -1.4486   -0.8406    0.2837 C   0  0  0  0  0  0  0  0  0  0  0  0
   -2.1960    0.3983    0.2329 C   0  0  0  0  0  0  0  0  0  0  0  0
   -2.4570    1.1363    1.3754 C   0  0  0  0  0  0  0  0  0  0  0  0
   -3.1723    2.3009    1.3479 C   0  0  0  0  0  0  0  0  0  0  0  0
   -3.6611    2.7818    0.1568 C   0  0  0  0  0  0  0  0  0  0  0  0
   -4.5884    4.2953    0.1316 Cl  0  0  0  0  0  0  0  0  0  0  0  0
   -3.4317    2.0917   -0.9911 C   0  0  0  0  0  0  0  0  0  0  0  0
   -2.6991    0.8997   -0.9589 C   0  0  0  0  0  0  0  0  0  0  0  0
   -0.0924   -0.7490    0.5397 C   0  0  0  0  0  0  0  0  0  0  0  0
    0.5292    0.5519    0.7365 C   0  0  0  0  0  0  0  0  0  0  0  0
    0.8287    1.3921   -0.4237 C   0  0  0  0  0  0  0  0  0  0  0  0
    1.8212    0.8392   -1.4217 C   0  0  0  0  0  0  0  0  0  0  0  0
    3.1414    0.5937   -0.7941 C   0  0  0  0  0  0  0  0  0  0  0  0
    4.1338    1.5411   -0.6985 C   0  0  0  0  0  0  0  0  0  0  0  0
    5.3505    1.2301   -0.0790 C   0  0  0  0  0  0  0  0  0  0  0  0
    5.5707   -0.0440    0.4482 C   0  0  0  0  0  0  0  0  0  0  0  0
    4.5688   -0.9962    0.3492 C   0  0  0  0  0  0  0  0  0  0  0  0
    3.3995   -0.6423   -0.2643 C   0  0  0  0  0  0  0  0  0  0  0  0
    0.5765   -1.9058    0.6044 N   0  0  0  0  0  0  0  0  0  0  0  0
  1  2  1  0
  2  3  2  0
  3  4  1  0
  4  5  1  0
  4  6  2  0
  6  7  1  0
  7  8  2  0
  8  9  1  0
  9 10  2  0
 10 11  1  0
 10 12  1  0
 12 13  2  0
  6 14  1  0
 14 15  1  0
 15 16  1  0
 16 17  1  0
 17 18  1  0
 18 19  2  0
 19 20  1  0
 20 21  2  0
 21 22  1  0
 22 23  2  0
 14 24  2  0
 24  2  1  0
 13  7  1  0
 23 18  1  0
M  END
>  <zinc_id>  (299) 
ZINC000013472723

>  <ortholog_name>  (299) 
DRTS_PLAFK

>  <gene_name>  (299) 
DRTS_PLAFK

>  <affinity>  (299) 
9.15

>  <chembldocid>  (299) 
16871

>  <title>  (299) 
None

>  <reference.pubmed_id>  (299) 
11881993

>  <reference.doi>  (299) 
None

>  <reference.chembl_id>  (299) 
CHEMBL1135602

>  <reference.journal>  (299) 
J. Med. Chem.

>  <reference.year>  (299) 
2002

$$$$

     RDKit          3D

 24 26  0  0  0  0  0  0  0  0999 V2000
    0.7118   -4.3298    0.4914 N   0  0  0  0  0  0  0  0  0  0  0  0
   -0.0311   -3.1115    0.4285 C   0  0  0  0  0  0  0  0  0  0  0  0
   -1.3418   -3.2026    0.1818 N   0  0  0  0  0  0  0  0  0  0  0  0
   -2.0555   -2.0640    0.1092 C   0  0  0  0  0  0  0  0  0  0  0  0
   -3.4571   -2.1664   -0.1427 N   0  0  0  0  0  0  0  0  0  0  0  0
   -1.4486   -0.8406    0.2837 C   0  0  0  0  0  0  0  0  0  0  0  0
   -2.1960    0.3983    0.2329 C   0  0  0  0  0  0  0  0  0  0  0  0
   -2.4570    1.1363    1.3754 C   0  0  0  0  0  0  0  0  0  0  0  0
   -3.1723    2.3009    1.3479 C   0  0  0  0  0  0  0  0  0  0  0  0
   -3.6611    2.7818    0.1568 C   0  0  0  0  0  0  0  0  0  0  0  0
   -4.5884    4.2953    0.1316 Cl  0  0  0  0  0  0  0  0  0  0  0  0
   -3.4317    2.0917   -0.9911 C   0  0  0  0  0  0  0  0  0  0  0  0
   -2.6991    0.8997   -0.9589 C   0  0  0  0  0  0  0  0  0  0  0  0
   -0.0924   -0.7490    0.5397 C   0  0  0  0  0  0  0  0  0  0  0  0
    0.5292    0.5519    0.7365 C   0  0  0  0  0  0  0  0  0  0  0  0
    0.8287    1.3921   -0.4237 C   0  0  0  0  0  0  0  0  0  0  0  0
    1.8212    0.8392   -1.4217 C   0  0  0  0  0  0  0  0  0  0  0  0
    3.1414    0.5937   -0.7941 C   0  0  0  0  0  0  0  0  0  0  0  0
    4.1338    1.5411   -0.6985 C   0  0  0  0  0  0  0  0  0  0  0  0
    5.3505    1.2301   -0.0790 C   0  0  0  0  0  0  0  0  0  0  0  0
    5.5707   -0.0440    0.4482 C   0  0  0  0  0  0  0  0  0  0  0  0
    4.5688   -0.9962    0.3492 C   0  0  0  0  0  0  0  0  0  0  0  0
    3.3995   -0.6423   -0.2643 C   0  0  0  0  0  0  0  0  0  0  0  0
    0.5765   -1.9058    0.6044 N   0  0  0  0  0  0  0  0  0  0  0  0
  1  2  1  0
  2  3  2  0
  3  4  1  0
  4  5  1  0
  4  6  2  0
  6  7  1  0
  7  8  2  0
  8  9  1  0
  9 10  2  0
 10 11  1  0
 10 12  1  0
 12 13  2  0
  6 14  1  0
 14 15  1  0
 15 16  1  0
 16 17  1  0
 17 18  1  0
 18 19  2  0
 19 20  1  0
 20 21  2  0
 21 22  1  0
 22 23  2  0
 14 24  2  0
 24  2  1  0
 13  7  1  0
 23 18  1  0
M  END
>  <zinc_id>  (300) 
ZINC000013472723

>  <ortholog_name>  (300) 
DRTS_PLAFK

>  <gene_name>  (300) 
DRTS_PLAFK

>  <affinity>  (300) 
9.15

>  <chembldocid>  (300) 
17662

>  <title>  (300) 
None

>  <reference.pubmed_id>  (300) 
14736247

>  <reference.doi>  (300) 
None

>  <reference.chembl_id>  (300) 
CHEMBL1138835

>  <reference.journal>  (300) 
J. Med. Chem.

>  <reference.year>  (300) 
2004

$$$$

     RDKit          3D

 24 26  0  0  0  0  0  0  0  0999 V2000
    1.0030   -4.0165    0.6459 N   0  0  0  0  0  0  0  0  0  0  0  0
    0.0383   -2.9995    0.4788 C   0  0  0  0  0  0  0  0  0  0  0  0
   -1.2802   -3.2252    0.5961 N   0  0  0  0  0  0  0  0  0  0  0  0
   -2.1826   -2.2143    0.4314 C   0  0  0  0  0  0  0  0  0  0  0  0
   -3.5902   -2.4739    0.5563 N   0  0  0  0  0  0  0  0  0  0  0  0
   -1.7668   -0.9561    0.1447 C   0  0  0  0  0  0  0  0  0  0  0  0
   -2.6622    0.1710   -0.0225 C   0  0  0  0  0  0  0  0  0  0  0  0
   -2.7591    1.1035    1.0241 C   0  0  0  0  0  0  0  0  0  0  0  0
   -3.6019    2.2030    0.9120 C   0  0  0  0  0  0  0  0  0  0  0  0
   -4.3587    2.4081   -0.2104 C   0  0  0  0  0  0  0  0  0  0  0  0
   -5.4023    3.8045   -0.3063 Cl  0  0  0  0  0  0  0  0  0  0  0  0
   -4.2625    1.4848   -1.2458 C   0  0  0  0  0  0  0  0  0  0  0  0
   -3.4224    0.3921   -1.1350 C   0  0  0  0  0  0  0  0  0  0  0  0
   -0.3970   -0.7125    0.0220 C   0  0  0  0  0  0  0  0  0  0  0  0
    0.0467    0.6512   -0.2579 C   0  0  0  0  0  0  0  0  0  0  0  0
    1.5150    0.7677   -0.3869 C   0  0  0  0  0  0  0  0  0  0  0  0
    2.2917    0.3276    0.8551 C   0  0  0  0  0  0  0  0  0  0  0  0
    3.7151    0.5686    0.5475 C   0  0  0  0  0  0  0  0  0  0  0  0
    4.3112    1.7830    0.9133 C   0  0  0  0  0  0  0  0  0  0  0  0
    5.6394    2.0326    0.6094 C   0  0  0  0  0  0  0  0  0  0  0  0
    6.4021    1.0871   -0.0610 C   0  0  0  0  0  0  0  0  0  0  0  0
    5.8096   -0.0964   -0.4126 C   0  0  0  0  0  0  0  0  0  0  0  0
    4.4935   -0.3428   -0.1112 C   0  0  0  0  0  0  0  0  0  0  0  0
    0.4203   -1.7476    0.1956 N   0  0  0  0  0  0  0  0  0  0  0  0
  1  2  1  0
  2  3  2  0
  3  4  1  0
  4  5  1  0
  4  6  2  0
  6  7  1  0
  7  8  2  0
  8  9  1  0
  9 10  2  0
 10 11  1  0
 10 12  1  0
 12 13  2  0
  6 14  1  0
 14 15  1  0
 15 16  1  0
 16 17  1  0
 17 18  1  0
 18 19  2  0
 19 20  1  0
 20 21  2  0
 21 22  1  0
 22 23  2  0
 14 24  2  0
 24  2  1  0
 13  7  1  0
 23 18  1  0
M  END
>  <zinc_id>  (301) 
ZINC000013472723

>  <ortholog_name>  (301) 
DRTS_PLAFK

>  <gene_name>  (301) 
DRTS_PLAFK

>  <affinity>  (301) 
9.13

>  <chembldocid>  (301) 
21047

>  <title>  (301) 
None

>  <reference.pubmed_id>  (301) 
15293997

>  <reference.doi>  (301) 
None

>  <reference.chembl_id>  (301) 
CHEMBL1138679

>  <reference.journal>  (301) 
J. Med. Chem.

>  <reference.year>  (301) 
2004

$$$$

     RDKit          3D

 24 26  0  0  0  0  0  0  0  0999 V2000
    1.0030   -4.0165    0.6459 N   0  0  0  0  0  0  0  0  0  0  0  0
    0.0383   -2.9995    0.4788 C   0  0  0  0  0  0  0  0  0  0  0  0
   -1.2802   -3.2252    0.5961 N   0  0  0  0  0  0  0  0  0  0  0  0
   -2.1826   -2.2143    0.4314 C   0  0  0  0  0  0  0  0  0  0  0  0
   -3.5902   -2.4739    0.5563 N   0  0  0  0  0  0  0  0  0  0  0  0
   -1.7668   -0.9561    0.1447 C   0  0  0  0  0  0  0  0  0  0  0  0
   -2.6622    0.1710   -0.0225 C   0  0  0  0  0  0  0  0  0  0  0  0
   -2.7591    1.1035    1.0241 C   0  0  0  0  0  0  0  0  0  0  0  0
   -3.6019    2.2030    0.9120 C   0  0  0  0  0  0  0  0  0  0  0  0
   -4.3587    2.4081   -0.2104 C   0  0  0  0  0  0  0  0  0  0  0  0
   -5.4023    3.8045   -0.3063 Cl  0  0  0  0  0  0  0  0  0  0  0  0
   -4.2625    1.4848   -1.2458 C   0  0  0  0  0  0  0  0  0  0  0  0
   -3.4224    0.3921   -1.1350 C   0  0  0  0  0  0  0  0  0  0  0  0
   -0.3970   -0.7125    0.0220 C   0  0  0  0  0  0  0  0  0  0  0  0
    0.0467    0.6512   -0.2579 C   0  0  0  0  0  0  0  0  0  0  0  0
    1.5150    0.7677   -0.3869 C   0  0  0  0  0  0  0  0  0  0  0  0
    2.2917    0.3276    0.8551 C   0  0  0  0  0  0  0  0  0  0  0  0
    3.7151    0.5686    0.5475 C   0  0  0  0  0  0  0  0  0  0  0  0
    4.3112    1.7830    0.9133 C   0  0  0  0  0  0  0  0  0  0  0  0
    5.6394    2.0326    0.6094 C   0  0  0  0  0  0  0  0  0  0  0  0
    6.4021    1.0871   -0.0610 C   0  0  0  0  0  0  0  0  0  0  0  0
    5.8096   -0.0964   -0.4126 C   0  0  0  0  0  0  0  0  0  0  0  0
    4.4935   -0.3428   -0.1112 C   0  0  0  0  0  0  0  0  0  0  0  0
    0.4203   -1.7476    0.1956 N   0  0  0  0  0  0  0  0  0  0  0  0
  1  2  1  0
  2  3  2  0
  3  4  1  0
  4  5  1  0
  4  6  2  0
  6  7  1  0
  7  8  2  0
  8  9  1  0
  9 10  2  0
 10 11  1  0
 10 12  1  0
 12 13  2  0
  6 14  1  0
 14 15  1  0
 15 16  1  0
 16 17  1  0
 17 18  1  0
 18 19  2  0
 19 20  1  0
 20 21  2  0
 21 22  1  0
 22 23  2  0
 14 24  2  0
 24  2  1  0
 13  7  1  0
 23 18  1  0
M  END
>  <zinc_id>  (302) 
ZINC000013472723

>  <ortholog_name>  (302) 
DRTS_PLAFK

>  <gene_name>  (302) 
DRTS_PLAFK

>  <affinity>  (302) 
7.86

>  <chembldocid>  (302) 
16871

>  <title>  (302) 
None

>  <reference.pubmed_id>  (302) 
11881993

>  <reference.doi>  (302) 
None

>  <reference.chembl_id>  (302) 
CHEMBL1135602

>  <reference.journal>  (302) 
J. Med. Chem.

>  <reference.year>  (302) 
2002

$$$$

     RDKit          3D

 24 26  0  0  0  0  0  0  0  0999 V2000
    1.0030   -4.0165    0.6459 N   0  0  0  0  0  0  0  0  0  0  0  0
    0.0383   -2.9995    0.4788 C   0  0  0  0  0  0  0  0  0  0  0  0
   -1.2802   -3.2252    0.5961 N   0  0  0  0  0  0  0  0  0  0  0  0
   -2.1826   -2.2143    0.4314 C   0  0  0  0  0  0  0  0  0  0  0  0
   -3.5902   -2.4739    0.5563 N   0  0  0  0  0  0  0  0  0  0  0  0
   -1.7668   -0.9561    0.1447 C   0  0  0  0  0  0  0  0  0  0  0  0
   -2.6622    0.1710   -0.0225 C   0  0  0  0  0  0  0  0  0  0  0  0
   -2.7591    1.1035    1.0241 C   0  0  0  0  0  0  0  0  0  0  0  0
   -3.6019    2.2030    0.9120 C   0  0  0  0  0  0  0  0  0  0  0  0
   -4.3587    2.4081   -0.2104 C   0  0  0  0  0  0  0  0  0  0  0  0
   -5.4023    3.8045   -0.3063 Cl  0  0  0  0  0  0  0  0  0  0  0  0
   -4.2625    1.4848   -1.2458 C   0  0  0  0  0  0  0  0  0  0  0  0
   -3.4224    0.3921   -1.1350 C   0  0  0  0  0  0  0  0  0  0  0  0
   -0.3970   -0.7125    0.0220 C   0  0  0  0  0  0  0  0  0  0  0  0
    0.0467    0.6512   -0.2579 C   0  0  0  0  0  0  0  0  0  0  0  0
    1.5150    0.7677   -0.3869 C   0  0  0  0  0  0  0  0  0  0  0  0
    2.2917    0.3276    0.8551 C   0  0  0  0  0  0  0  0  0  0  0  0
    3.7151    0.5686    0.5475 C   0  0  0  0  0  0  0  0  0  0  0  0
    4.3112    1.7830    0.9133 C   0  0  0  0  0  0  0  0  0  0  0  0
    5.6394    2.0326    0.6094 C   0  0  0  0  0  0  0  0  0  0  0  0
    6.4021    1.0871   -0.0610 C   0  0  0  0  0  0  0  0  0  0  0  0
    5.8096   -0.0964   -0.4126 C   0  0  0  0  0  0  0  0  0  0  0  0
    4.4935   -0.3428   -0.1112 C   0  0  0  0  0  0  0  0  0  0  0  0
    0.4203   -1.7476    0.1956 N   0  0  0  0  0  0  0  0  0  0  0  0
  1  2  1  0
  2  3  2  0
  3  4  1  0
  4  5  1  0
  4  6  2  0
  6  7  1  0
  7  8  2  0
  8  9  1  0
  9 10  2  0
 10 11  1  0
 10 12  1  0
 12 13  2  0
  6 14  1  0
 14 15  1  0
 15 16  1  0
 16 17  1  0
 17 18  1  0
 18 19  2  0
 19 20  1  0
 20 21  2  0
 21 22  1  0
 22 23  2  0
 14 24  2  0
 24  2  1  0
 13  7  1  0
 23 18  1  0
M  END
>  <zinc_id>  (303) 
ZINC000013472723

>  <ortholog_name>  (303) 
DRTS_PLAFK

>  <gene_name>  (303) 
DRTS_PLAFK

>  <affinity>  (303) 
7.82

>  <chembldocid>  (303) 
17662

>  <title>  (303) 
None

>  <reference.pubmed_id>  (303) 
14736247

>  <reference.doi>  (303) 
None

>  <reference.chembl_id>  (303) 
CHEMBL1138835

>  <reference.journal>  (303) 
J. Med. Chem.

>  <reference.year>  (303) 
2004

$$$$

     RDKit          3D

 24 26  0  0  0  0  0  0  0  0999 V2000
    1.0030   -4.0165    0.6459 N   0  0  0  0  0  0  0  0  0  0  0  0
    0.0383   -2.9995    0.4788 C   0  0  0  0  0  0  0  0  0  0  0  0
   -1.2802   -3.2252    0.5961 N   0  0  0  0  0  0  0  0  0  0  0  0
   -2.1826   -2.2143    0.4314 C   0  0  0  0  0  0  0  0  0  0  0  0
   -3.5902   -2.4739    0.5563 N   0  0  0  0  0  0  0  0  0  0  0  0
   -1.7668   -0.9561    0.1447 C   0  0  0  0  0  0  0  0  0  0  0  0
   -2.6622    0.1710   -0.0225 C   0  0  0  0  0  0  0  0  0  0  0  0
   -2.7591    1.1035    1.0241 C   0  0  0  0  0  0  0  0  0  0  0  0
   -3.6019    2.2030    0.9120 C   0  0  0  0  0  0  0  0  0  0  0  0
   -4.3587    2.4081   -0.2104 C   0  0  0  0  0  0  0  0  0  0  0  0
   -5.4023    3.8045   -0.3063 Cl  0  0  0  0  0  0  0  0  0  0  0  0
   -4.2625    1.4848   -1.2458 C   0  0  0  0  0  0  0  0  0  0  0  0
   -3.4224    0.3921   -1.1350 C   0  0  0  0  0  0  0  0  0  0  0  0
   -0.3970   -0.7125    0.0220 C   0  0  0  0  0  0  0  0  0  0  0  0
    0.0467    0.6512   -0.2579 C   0  0  0  0  0  0  0  0  0  0  0  0
    1.5150    0.7677   -0.3869 C   0  0  0  0  0  0  0  0  0  0  0  0
    2.2917    0.3276    0.8551 C   0  0  0  0  0  0  0  0  0  0  0  0
    3.7151    0.5686    0.5475 C   0  0  0  0  0  0  0  0  0  0  0  0
    4.3112    1.7830    0.9133 C   0  0  0  0  0  0  0  0  0  0  0  0
    5.6394    2.0326    0.6094 C   0  0  0  0  0  0  0  0  0  0  0  0
    6.4021    1.0871   -0.0610 C   0  0  0  0  0  0  0  0  0  0  0  0
    5.8096   -0.0964   -0.4126 C   0  0  0  0  0  0  0  0  0  0  0  0
    4.4935   -0.3428   -0.1112 C   0  0  0  0  0  0  0  0  0  0  0  0
    0.4203   -1.7476    0.1956 N   0  0  0  0  0  0  0  0  0  0  0  0
  1  2  1  0
  2  3  2  0
  3  4  1  0
  4  5  1  0
  4  6  2  0
  6  7  1  0
  7  8  2  0
  8  9  1  0
  9 10  2  0
 10 11  1  0
 10 12  1  0
 12 13  2  0
  6 14  1  0
 14 15  1  0
 15 16  1  0
 16 17  1  0
 17 18  1  0
 18 19  2  0
 19 20  1  0
 20 21  2  0
 21 22  1  0
 22 23  2  0
 14 24  2  0
 24  2  1  0
 13  7  1  0
 23 18  1  0
M  END
>  <zinc_id>  (304) 
ZINC000013472723

>  <ortholog_name>  (304) 
DRTS_PLAFK

>  <gene_name>  (304) 
DRTS_PLAFK

>  <affinity>  (304) 
6.77

>  <chembldocid>  (304) 
17662

>  <title>  (304) 
None

>  <reference.pubmed_id>  (304) 
14736247

>  <reference.doi>  (304) 
None

>  <reference.chembl_id>  (304) 
CHEMBL1138835

>  <reference.journal>  (304) 
J. Med. Chem.

>  <reference.year>  (304) 
2004

$$$$

     RDKit          3D

 24 26  0  0  0  0  0  0  0  0999 V2000
    1.0030   -4.0165    0.6459 N   0  0  0  0  0  0  0  0  0  0  0  0
    0.0383   -2.9995    0.4788 C   0  0  0  0  0  0  0  0  0  0  0  0
   -1.2802   -3.2252    0.5961 N   0  0  0  0  0  0  0  0  0  0  0  0
   -2.1826   -2.2143    0.4314 C   0  0  0  0  0  0  0  0  0  0  0  0
   -3.5902   -2.4739    0.5563 N   0  0  0  0  0  0  0  0  0  0  0  0
   -1.7668   -0.9561    0.1447 C   0  0  0  0  0  0  0  0  0  0  0  0
   -2.6622    0.1710   -0.0225 C   0  0  0  0  0  0  0  0  0  0  0  0
   -2.7591    1.1035    1.0241 C   0  0  0  0  0  0  0  0  0  0  0  0
   -3.6019    2.2030    0.9120 C   0  0  0  0  0  0  0  0  0  0  0  0
   -4.3587    2.4081   -0.2104 C   0  0  0  0  0  0  0  0  0  0  0  0
   -5.4023    3.8045   -0.3063 Cl  0  0  0  0  0  0  0  0  0  0  0  0
   -4.2625    1.4848   -1.2458 C   0  0  0  0  0  0  0  0  0  0  0  0
   -3.4224    0.3921   -1.1350 C   0  0  0  0  0  0  0  0  0  0  0  0
   -0.3970   -0.7125    0.0220 C   0  0  0  0  0  0  0  0  0  0  0  0
    0.0467    0.6512   -0.2579 C   0  0  0  0  0  0  0  0  0  0  0  0
    1.5150    0.7677   -0.3869 C   0  0  0  0  0  0  0  0  0  0  0  0
    2.2917    0.3276    0.8551 C   0  0  0  0  0  0  0  0  0  0  0  0
    3.7151    0.5686    0.5475 C   0  0  0  0  0  0  0  0  0  0  0  0
    4.3112    1.7830    0.9133 C   0  0  0  0  0  0  0  0  0  0  0  0
    5.6394    2.0326    0.6094 C   0  0  0  0  0  0  0  0  0  0  0  0
    6.4021    1.0871   -0.0610 C   0  0  0  0  0  0  0  0  0  0  0  0
    5.8096   -0.0964   -0.4126 C   0  0  0  0  0  0  0  0  0  0  0  0
    4.4935   -0.3428   -0.1112 C   0  0  0  0  0  0  0  0  0  0  0  0
    0.4203   -1.7476    0.1956 N   0  0  0  0  0  0  0  0  0  0  0  0
  1  2  1  0
  2  3  2  0
  3  4  1  0
  4  5  1  0
  4  6  2  0
  6  7  1  0
  7  8  2  0
  8  9  1  0
  9 10  2  0
 10 11  1  0
 10 12  1  0
 12 13  2  0
  6 14  1  0
 14 15  1  0
 15 16  1  0
 16 17  1  0
 17 18  1  0
 18 19  2  0
 19 20  1  0
 20 21  2  0
 21 22  1  0
 22 23  2  0
 14 24  2  0
 24  2  1  0
 13  7  1  0
 23 18  1  0
M  END
>  <zinc_id>  (305) 
ZINC000013472723

>  <ortholog_name>  (305) 
DRTS_PLAFK

>  <gene_name>  (305) 
DRTS_PLAFK

>  <affinity>  (305) 
7.63

>  <chembldocid>  (305) 
16871

>  <title>  (305) 
None

>  <reference.pubmed_id>  (305) 
11881993

>  <reference.doi>  (305) 
None

>  <reference.chembl_id>  (305) 
CHEMBL1135602

>  <reference.journal>  (305) 
J. Med. Chem.

>  <reference.year>  (305) 
2002

$$$$

     RDKit          3D

 24 26  0  0  0  0  0  0  0  0999 V2000
    1.0030   -4.0165    0.6459 N   0  0  0  0  0  0  0  0  0  0  0  0
    0.0383   -2.9995    0.4788 C   0  0  0  0  0  0  0  0  0  0  0  0
   -1.2802   -3.2252    0.5961 N   0  0  0  0  0  0  0  0  0  0  0  0
   -2.1826   -2.2143    0.4314 C   0  0  0  0  0  0  0  0  0  0  0  0
   -3.5902   -2.4739    0.5563 N   0  0  0  0  0  0  0  0  0  0  0  0
   -1.7668   -0.9561    0.1447 C   0  0  0  0  0  0  0  0  0  0  0  0
   -2.6622    0.1710   -0.0225 C   0  0  0  0  0  0  0  0  0  0  0  0
   -2.7591    1.1035    1.0241 C   0  0  0  0  0  0  0  0  0  0  0  0
   -3.6019    2.2030    0.9120 C   0  0  0  0  0  0  0  0  0  0  0  0
   -4.3587    2.4081   -0.2104 C   0  0  0  0  0  0  0  0  0  0  0  0
   -5.4023    3.8045   -0.3063 Cl  0  0  0  0  0  0  0  0  0  0  0  0
   -4.2625    1.4848   -1.2458 C   0  0  0  0  0  0  0  0  0  0  0  0
   -3.4224    0.3921   -1.1350 C   0  0  0  0  0  0  0  0  0  0  0  0
   -0.3970   -0.7125    0.0220 C   0  0  0  0  0  0  0  0  0  0  0  0
    0.0467    0.6512   -0.2579 C   0  0  0  0  0  0  0  0  0  0  0  0
    1.5150    0.7677   -0.3869 C   0  0  0  0  0  0  0  0  0  0  0  0
    2.2917    0.3276    0.8551 C   0  0  0  0  0  0  0  0  0  0  0  0
    3.7151    0.5686    0.5475 C   0  0  0  0  0  0  0  0  0  0  0  0
    4.3112    1.7830    0.9133 C   0  0  0  0  0  0  0  0  0  0  0  0
    5.6394    2.0326    0.6094 C   0  0  0  0  0  0  0  0  0  0  0  0
    6.4021    1.0871   -0.0610 C   0  0  0  0  0  0  0  0  0  0  0  0
    5.8096   -0.0964   -0.4126 C   0  0  0  0  0  0  0  0  0  0  0  0
    4.4935   -0.3428   -0.1112 C   0  0  0  0  0  0  0  0  0  0  0  0
    0.4203   -1.7476    0.1956 N   0  0  0  0  0  0  0  0  0  0  0  0
  1  2  1  0
  2  3  2  0
  3  4  1  0
  4  5  1  0
  4  6  2  0
  6  7  1  0
  7  8  2  0
  8  9  1  0
  9 10  2  0
 10 11  1  0
 10 12  1  0
 12 13  2  0
  6 14  1  0
 14 15  1  0
 15 16  1  0
 16 17  1  0
 17 18  1  0
 18 19  2  0
 19 20  1  0
 20 21  2  0
 21 22  1  0
 22 23  2  0
 14 24  2  0
 24  2  1  0
 13  7  1  0
 23 18  1  0
M  END
>  <zinc_id>  (306) 
ZINC000013472723

>  <ortholog_name>  (306) 
DRTS_PLAFK

>  <gene_name>  (306) 
DRTS_PLAFK

>  <affinity>  (306) 
7.20

>  <chembldocid>  (306) 
17662

>  <title>  (306) 
None

>  <reference.pubmed_id>  (306) 
14736247

>  <reference.doi>  (306) 
None

>  <reference.chembl_id>  (306) 
CHEMBL1138835

>  <reference.journal>  (306) 
J. Med. Chem.

>  <reference.year>  (306) 
2004

$$$$

     RDKit          3D

 21 22  0  0  0  0  0  0  0  0999 V2000
    3.6029    2.7853    1.6402 C   0  0  0  0  0  0  0  0  0  0  0  0
    3.4824    1.3789    1.5254 O   0  0  0  0  0  0  0  0  0  0  0  0
    3.3185    0.7589    0.3046 C   0  0  0  0  0  0  0  0  0  0  0  0
    3.2802    1.5318   -0.7143 O   0  0  0  0  0  0  0  0  0  0  0  0
    3.1823   -0.6849    0.0624 C   0  0  0  0  0  0  0  0  0  0  0  0
    1.7827   -1.1545   -0.1373 C   0  0  0  0  0  0  0  0  0  0  0  0
    0.9136   -0.8717    1.0761 C   0  0  0  0  0  0  0  0  0  0  0  0
   -0.4801   -1.3534    0.8538 C   0  0  0  0  0  0  0  0  0  0  0  0
   -0.9480   -2.4955    1.3869 N   0  0  0  0  0  0  0  0  0  0  0  0
   -2.1790   -2.9490    1.1852 C   0  0  0  0  0  0  0  0  0  0  0  0
   -2.5809   -4.1703    1.7966 N   0  0  0  0  0  0  0  0  0  0  0  0
   -3.0038   -2.2243    0.4027 N   0  0  0  0  0  0  0  0  0  0  0  0
   -2.5839   -1.0710   -0.1562 C   0  0  0  0  0  0  0  0  0  0  0  0
   -3.4595   -0.2914   -0.9940 N   0  0  0  0  0  0  0  0  0  0  0  0
   -1.3094   -0.5794    0.0396 C   0  0  0  0  0  0  0  0  0  0  0  0
   -0.8672    0.6754   -0.5386 C   0  0  0  0  0  0  0  0  0  0  0  0
    0.0140    0.7067   -1.5828 C   0  0  0  0  0  0  0  0  0  0  0  0
    0.3709    1.9458   -2.0723 C   0  0  0  0  0  0  0  0  0  0  0  0
   -0.1344    3.1254   -1.5386 C   0  0  0  0  0  0  0  0  0  0  0  0
   -1.0332    3.0939   -0.4733 C   0  0  0  0  0  0  0  0  0  0  0  0
   -1.3682    1.8433   -0.0090 C   0  0  0  0  0  0  0  0  0  0  0  0
  1  2  1  0
  2  3  1  0
  3  4  2  0
  3  5  1  0
  5  6  1  0
  6  7  1  0
  7  8  1  0
  8  9  2  0
  9 10  1  0
 10 11  1  0
 10 12  2  0
 12 13  1  0
 13 14  1  0
 13 15  2  0
 15 16  1  0
 16 17  2  0
 17 18  1  0
 18 19  2  0
 19 20  1  0
 20 21  2  0
 15  8  1  0
 21 16  1  0
M  END
>  <zinc_id>  (307) 
ZINC000013472724

>  <ortholog_name>  (307) 
DRTS_PLAFK

>  <gene_name>  (307) 
DRTS_PLAFK

>  <affinity>  (307) 
9.22

>  <chembldocid>  (307) 
16871

>  <title>  (307) 
None

>  <reference.pubmed_id>  (307) 
11881993

>  <reference.doi>  (307) 
None

>  <reference.chembl_id>  (307) 
CHEMBL1135602

>  <reference.journal>  (307) 
J. Med. Chem.

>  <reference.year>  (307) 
2002

$$$$

     RDKit          3D

 21 22  0  0  0  0  0  0  0  0999 V2000
    3.6029    2.7853    1.6402 C   0  0  0  0  0  0  0  0  0  0  0  0
    3.4824    1.3789    1.5254 O   0  0  0  0  0  0  0  0  0  0  0  0
    3.3185    0.7589    0.3046 C   0  0  0  0  0  0  0  0  0  0  0  0
    3.2802    1.5318   -0.7143 O   0  0  0  0  0  0  0  0  0  0  0  0
    3.1823   -0.6849    0.0624 C   0  0  0  0  0  0  0  0  0  0  0  0
    1.7827   -1.1545   -0.1373 C   0  0  0  0  0  0  0  0  0  0  0  0
    0.9136   -0.8717    1.0761 C   0  0  0  0  0  0  0  0  0  0  0  0
   -0.4801   -1.3534    0.8538 C   0  0  0  0  0  0  0  0  0  0  0  0
   -0.9480   -2.4955    1.3869 N   0  0  0  0  0  0  0  0  0  0  0  0
   -2.1790   -2.9490    1.1852 C   0  0  0  0  0  0  0  0  0  0  0  0
   -2.5809   -4.1703    1.7966 N   0  0  0  0  0  0  0  0  0  0  0  0
   -3.0038   -2.2243    0.4027 N   0  0  0  0  0  0  0  0  0  0  0  0
   -2.5839   -1.0710   -0.1562 C   0  0  0  0  0  0  0  0  0  0  0  0
   -3.4595   -0.2914   -0.9940 N   0  0  0  0  0  0  0  0  0  0  0  0
   -1.3094   -0.5794    0.0396 C   0  0  0  0  0  0  0  0  0  0  0  0
   -0.8672    0.6754   -0.5386 C   0  0  0  0  0  0  0  0  0  0  0  0
    0.0140    0.7067   -1.5828 C   0  0  0  0  0  0  0  0  0  0  0  0
    0.3709    1.9458   -2.0723 C   0  0  0  0  0  0  0  0  0  0  0  0
   -0.1344    3.1254   -1.5386 C   0  0  0  0  0  0  0  0  0  0  0  0
   -1.0332    3.0939   -0.4733 C   0  0  0  0  0  0  0  0  0  0  0  0
   -1.3682    1.8433   -0.0090 C   0  0  0  0  0  0  0  0  0  0  0  0
  1  2  1  0
  2  3  1  0
  3  4  2  0
  3  5  1  0
  5  6  1  0
  6  7  1  0
  7  8  1  0
  8  9  2  0
  9 10  1  0
 10 11  1  0
 10 12  2  0
 12 13  1  0
 13 14  1  0
 13 15  2  0
 15 16  1  0
 16 17  2  0
 17 18  1  0
 18 19  2  0
 19 20  1  0
 20 21  2  0
 15  8  1  0
 21 16  1  0
M  END
>  <zinc_id>  (308) 
ZINC000013472724

>  <ortholog_name>  (308) 
DRTS_PLAFK

>  <gene_name>  (308) 
DRTS_PLAFK

>  <affinity>  (308) 
9.22

>  <chembldocid>  (308) 
17662

>  <title>  (308) 
None

>  <reference.pubmed_id>  (308) 
14736247

>  <reference.doi>  (308) 
None

>  <reference.chembl_id>  (308) 
CHEMBL1138835

>  <reference.journal>  (308) 
J. Med. Chem.

>  <reference.year>  (308) 
2004

$$$$

     RDKit          3D

 21 22  0  0  0  0  0  0  0  0999 V2000
    3.6029    2.7853    1.6402 C   0  0  0  0  0  0  0  0  0  0  0  0
    3.4824    1.3789    1.5254 O   0  0  0  0  0  0  0  0  0  0  0  0
    3.3185    0.7589    0.3046 C   0  0  0  0  0  0  0  0  0  0  0  0
    3.2802    1.5318   -0.7143 O   0  0  0  0  0  0  0  0  0  0  0  0
    3.1823   -0.6849    0.0624 C   0  0  0  0  0  0  0  0  0  0  0  0
    1.7827   -1.1545   -0.1373 C   0  0  0  0  0  0  0  0  0  0  0  0
    0.9136   -0.8717    1.0761 C   0  0  0  0  0  0  0  0  0  0  0  0
   -0.4801   -1.3534    0.8538 C   0  0  0  0  0  0  0  0  0  0  0  0
   -0.9480   -2.4955    1.3869 N   0  0  0  0  0  0  0  0  0  0  0  0
   -2.1790   -2.9490    1.1852 C   0  0  0  0  0  0  0  0  0  0  0  0
   -2.5809   -4.1703    1.7966 N   0  0  0  0  0  0  0  0  0  0  0  0
   -3.0038   -2.2243    0.4027 N   0  0  0  0  0  0  0  0  0  0  0  0
   -2.5839   -1.0710   -0.1562 C   0  0  0  0  0  0  0  0  0  0  0  0
   -3.4595   -0.2914   -0.9940 N   0  0  0  0  0  0  0  0  0  0  0  0
   -1.3094   -0.5794    0.0396 C   0  0  0  0  0  0  0  0  0  0  0  0
   -0.8672    0.6754   -0.5386 C   0  0  0  0  0  0  0  0  0  0  0  0
    0.0140    0.7067   -1.5828 C   0  0  0  0  0  0  0  0  0  0  0  0
    0.3709    1.9458   -2.0723 C   0  0  0  0  0  0  0  0  0  0  0  0
   -0.1344    3.1254   -1.5386 C   0  0  0  0  0  0  0  0  0  0  0  0
   -1.0332    3.0939   -0.4733 C   0  0  0  0  0  0  0  0  0  0  0  0
   -1.3682    1.8433   -0.0090 C   0  0  0  0  0  0  0  0  0  0  0  0
  1  2  1  0
  2  3  1  0
  3  4  2  0
  3  5  1  0
  5  6  1  0
  6  7  1  0
  7  8  1  0
  8  9  2  0
  9 10  1  0
 10 11  1  0
 10 12  2  0
 12 13  1  0
 13 14  1  0
 13 15  2  0
 15 16  1  0
 16 17  2  0
 17 18  1  0
 18 19  2  0
 19 20  1  0
 20 21  2  0
 15  8  1  0
 21 16  1  0
M  END
>  <zinc_id>  (309) 
ZINC000013472724

>  <ortholog_name>  (309) 
DRTS_PLAFK

>  <gene_name>  (309) 
DRTS_PLAFK

>  <affinity>  (309) 
8.74

>  <chembldocid>  (309) 
16871

>  <title>  (309) 
None

>  <reference.pubmed_id>  (309) 
11881993

>  <reference.doi>  (309) 
None

>  <reference.chembl_id>  (309) 
CHEMBL1135602

>  <reference.journal>  (309) 
J. Med. Chem.

>  <reference.year>  (309) 
2002

$$$$

     RDKit          3D

 21 22  0  0  0  0  0  0  0  0999 V2000
    3.6029    2.7853    1.6402 C   0  0  0  0  0  0  0  0  0  0  0  0
    3.4824    1.3789    1.5254 O   0  0  0  0  0  0  0  0  0  0  0  0
    3.3185    0.7589    0.3046 C   0  0  0  0  0  0  0  0  0  0  0  0
    3.2802    1.5318   -0.7143 O   0  0  0  0  0  0  0  0  0  0  0  0
    3.1823   -0.6849    0.0624 C   0  0  0  0  0  0  0  0  0  0  0  0
    1.7827   -1.1545   -0.1373 C   0  0  0  0  0  0  0  0  0  0  0  0
    0.9136   -0.8717    1.0761 C   0  0  0  0  0  0  0  0  0  0  0  0
   -0.4801   -1.3534    0.8538 C   0  0  0  0  0  0  0  0  0  0  0  0
   -0.9480   -2.4955    1.3869 N   0  0  0  0  0  0  0  0  0  0  0  0
   -2.1790   -2.9490    1.1852 C   0  0  0  0  0  0  0  0  0  0  0  0
   -2.5809   -4.1703    1.7966 N   0  0  0  0  0  0  0  0  0  0  0  0
   -3.0038   -2.2243    0.4027 N   0  0  0  0  0  0  0  0  0  0  0  0
   -2.5839   -1.0710   -0.1562 C   0  0  0  0  0  0  0  0  0  0  0  0
   -3.4595   -0.2914   -0.9940 N   0  0  0  0  0  0  0  0  0  0  0  0
   -1.3094   -0.5794    0.0396 C   0  0  0  0  0  0  0  0  0  0  0  0
   -0.8672    0.6754   -0.5386 C   0  0  0  0  0  0  0  0  0  0  0  0
    0.0140    0.7067   -1.5828 C   0  0  0  0  0  0  0  0  0  0  0  0
    0.3709    1.9458   -2.0723 C   0  0  0  0  0  0  0  0  0  0  0  0
   -0.1344    3.1254   -1.5386 C   0  0  0  0  0  0  0  0  0  0  0  0
   -1.0332    3.0939   -0.4733 C   0  0  0  0  0  0  0  0  0  0  0  0
   -1.3682    1.8433   -0.0090 C   0  0  0  0  0  0  0  0  0  0  0  0
  1  2  1  0
  2  3  1  0
  3  4  2  0
  3  5  1  0
  5  6  1  0
  6  7  1  0
  7  8  1  0
  8  9  2  0
  9 10  1  0
 10 11  1  0
 10 12  2  0
 12 13  1  0
 13 14  1  0
 13 15  2  0
 15 16  1  0
 16 17  2  0
 17 18  1  0
 18 19  2  0
 19 20  1  0
 20 21  2  0
 15  8  1  0
 21 16  1  0
M  END
>  <zinc_id>  (310) 
ZINC000013472724

>  <ortholog_name>  (310) 
DRTS_PLAFK

>  <gene_name>  (310) 
DRTS_PLAFK

>  <affinity>  (310) 
8.00

>  <chembldocid>  (310) 
21047

>  <title>  (310) 
None

>  <reference.pubmed_id>  (310) 
15293997

>  <reference.doi>  (310) 
None

>  <reference.chembl_id>  (310) 
CHEMBL1138679

>  <reference.journal>  (310) 
J. Med. Chem.

>  <reference.year>  (310) 
2004

$$$$

     RDKit          3D

 21 22  0  0  0  0  0  0  0  0999 V2000
    3.6029    2.7853    1.6402 C   0  0  0  0  0  0  0  0  0  0  0  0
    3.4824    1.3789    1.5254 O   0  0  0  0  0  0  0  0  0  0  0  0
    3.3185    0.7589    0.3046 C   0  0  0  0  0  0  0  0  0  0  0  0
    3.2802    1.5318   -0.7143 O   0  0  0  0  0  0  0  0  0  0  0  0
    3.1823   -0.6849    0.0624 C   0  0  0  0  0  0  0  0  0  0  0  0
    1.7827   -1.1545   -0.1373 C   0  0  0  0  0  0  0  0  0  0  0  0
    0.9136   -0.8717    1.0761 C   0  0  0  0  0  0  0  0  0  0  0  0
   -0.4801   -1.3534    0.8538 C   0  0  0  0  0  0  0  0  0  0  0  0
   -0.9480   -2.4955    1.3869 N   0  0  0  0  0  0  0  0  0  0  0  0
   -2.1790   -2.9490    1.1852 C   0  0  0  0  0  0  0  0  0  0  0  0
   -2.5809   -4.1703    1.7966 N   0  0  0  0  0  0  0  0  0  0  0  0
   -3.0038   -2.2243    0.4027 N   0  0  0  0  0  0  0  0  0  0  0  0
   -2.5839   -1.0710   -0.1562 C   0  0  0  0  0  0  0  0  0  0  0  0
   -3.4595   -0.2914   -0.9940 N   0  0  0  0  0  0  0  0  0  0  0  0
   -1.3094   -0.5794    0.0396 C   0  0  0  0  0  0  0  0  0  0  0  0
   -0.8672    0.6754   -0.5386 C   0  0  0  0  0  0  0  0  0  0  0  0
    0.0140    0.7067   -1.5828 C   0  0  0  0  0  0  0  0  0  0  0  0
    0.3709    1.9458   -2.0723 C   0  0  0  0  0  0  0  0  0  0  0  0
   -0.1344    3.1254   -1.5386 C   0  0  0  0  0  0  0  0  0  0  0  0
   -1.0332    3.0939   -0.4733 C   0  0  0  0  0  0  0  0  0  0  0  0
   -1.3682    1.8433   -0.0090 C   0  0  0  0  0  0  0  0  0  0  0  0
  1  2  1  0
  2  3  1  0
  3  4  2  0
  3  5  1  0
  5  6  1  0
  6  7  1  0
  7  8  1  0
  8  9  2  0
  9 10  1  0
 10 11  1  0
 10 12  2  0
 12 13  1  0
 13 14  1  0
 13 15  2  0
 15 16  1  0
 16 17  2  0
 17 18  1  0
 18 19  2  0
 19 20  1  0
 20 21  2  0
 15  8  1  0
 21 16  1  0
M  END
>  <zinc_id>  (311) 
ZINC000013472724

>  <ortholog_name>  (311) 
DRTS_PLAFK

>  <gene_name>  (311) 
DRTS_PLAFK

>  <affinity>  (311) 
7.82

>  <chembldocid>  (311) 
17662

>  <title>  (311) 
None

>  <reference.pubmed_id>  (311) 
14736247

>  <reference.doi>  (311) 
None

>  <reference.chembl_id>  (311) 
CHEMBL1138835

>  <reference.journal>  (311) 
J. Med. Chem.

>  <reference.year>  (311) 
2004

$$$$

     RDKit          3D

 21 22  0  0  0  0  0  0  0  0999 V2000
    3.6029    2.7853    1.6402 C   0  0  0  0  0  0  0  0  0  0  0  0
    3.4824    1.3789    1.5254 O   0  0  0  0  0  0  0  0  0  0  0  0
    3.3185    0.7589    0.3046 C   0  0  0  0  0  0  0  0  0  0  0  0
    3.2802    1.5318   -0.7143 O   0  0  0  0  0  0  0  0  0  0  0  0
    3.1823   -0.6849    0.0624 C   0  0  0  0  0  0  0  0  0  0  0  0
    1.7827   -1.1545   -0.1373 C   0  0  0  0  0  0  0  0  0  0  0  0
    0.9136   -0.8717    1.0761 C   0  0  0  0  0  0  0  0  0  0  0  0
   -0.4801   -1.3534    0.8538 C   0  0  0  0  0  0  0  0  0  0  0  0
   -0.9480   -2.4955    1.3869 N   0  0  0  0  0  0  0  0  0  0  0  0
   -2.1790   -2.9490    1.1852 C   0  0  0  0  0  0  0  0  0  0  0  0
   -2.5809   -4.1703    1.7966 N   0  0  0  0  0  0  0  0  0  0  0  0
   -3.0038   -2.2243    0.4027 N   0  0  0  0  0  0  0  0  0  0  0  0
   -2.5839   -1.0710   -0.1562 C   0  0  0  0  0  0  0  0  0  0  0  0
   -3.4595   -0.2914   -0.9940 N   0  0  0  0  0  0  0  0  0  0  0  0
   -1.3094   -0.5794    0.0396 C   0  0  0  0  0  0  0  0  0  0  0  0
   -0.8672    0.6754   -0.5386 C   0  0  0  0  0  0  0  0  0  0  0  0
    0.0140    0.7067   -1.5828 C   0  0  0  0  0  0  0  0  0  0  0  0
    0.3709    1.9458   -2.0723 C   0  0  0  0  0  0  0  0  0  0  0  0
   -0.1344    3.1254   -1.5386 C   0  0  0  0  0  0  0  0  0  0  0  0
   -1.0332    3.0939   -0.4733 C   0  0  0  0  0  0  0  0  0  0  0  0
   -1.3682    1.8433   -0.0090 C   0  0  0  0  0  0  0  0  0  0  0  0
  1  2  1  0
  2  3  1  0
  3  4  2  0
  3  5  1  0
  5  6  1  0
  6  7  1  0
  7  8  1  0
  8  9  2  0
  9 10  1  0
 10 11  1  0
 10 12  2  0
 12 13  1  0
 13 14  1  0
 13 15  2  0
 15 16  1  0
 16 17  2  0
 17 18  1  0
 18 19  2  0
 19 20  1  0
 20 21  2  0
 15  8  1  0
 21 16  1  0
M  END
>  <zinc_id>  (312) 
ZINC000013472724

>  <ortholog_name>  (312) 
DRTS_PLAFK

>  <gene_name>  (312) 
DRTS_PLAFK

>  <affinity>  (312) 
7.62

>  <chembldocid>  (312) 
17662

>  <title>  (312) 
None

>  <reference.pubmed_id>  (312) 
14736247

>  <reference.doi>  (312) 
None

>  <reference.chembl_id>  (312) 
CHEMBL1138835

>  <reference.journal>  (312) 
J. Med. Chem.

>  <reference.year>  (312) 
2004

$$$$

     RDKit          3D

 21 22  0  0  0  0  0  0  0  0999 V2000
    3.6029    2.7853    1.6402 C   0  0  0  0  0  0  0  0  0  0  0  0
    3.4824    1.3789    1.5254 O   0  0  0  0  0  0  0  0  0  0  0  0
    3.3185    0.7589    0.3046 C   0  0  0  0  0  0  0  0  0  0  0  0
    3.2802    1.5318   -0.7143 O   0  0  0  0  0  0  0  0  0  0  0  0
    3.1823   -0.6849    0.0624 C   0  0  0  0  0  0  0  0  0  0  0  0
    1.7827   -1.1545   -0.1373 C   0  0  0  0  0  0  0  0  0  0  0  0
    0.9136   -0.8717    1.0761 C   0  0  0  0  0  0  0  0  0  0  0  0
   -0.4801   -1.3534    0.8538 C   0  0  0  0  0  0  0  0  0  0  0  0
   -0.9480   -2.4955    1.3869 N   0  0  0  0  0  0  0  0  0  0  0  0
   -2.1790   -2.9490    1.1852 C   0  0  0  0  0  0  0  0  0  0  0  0
   -2.5809   -4.1703    1.7966 N   0  0  0  0  0  0  0  0  0  0  0  0
   -3.0038   -2.2243    0.4027 N   0  0  0  0  0  0  0  0  0  0  0  0
   -2.5839   -1.0710   -0.1562 C   0  0  0  0  0  0  0  0  0  0  0  0
   -3.4595   -0.2914   -0.9940 N   0  0  0  0  0  0  0  0  0  0  0  0
   -1.3094   -0.5794    0.0396 C   0  0  0  0  0  0  0  0  0  0  0  0
   -0.8672    0.6754   -0.5386 C   0  0  0  0  0  0  0  0  0  0  0  0
    0.0140    0.7067   -1.5828 C   0  0  0  0  0  0  0  0  0  0  0  0
    0.3709    1.9458   -2.0723 C   0  0  0  0  0  0  0  0  0  0  0  0
   -0.1344    3.1254   -1.5386 C   0  0  0  0  0  0  0  0  0  0  0  0
   -1.0332    3.0939   -0.4733 C   0  0  0  0  0  0  0  0  0  0  0  0
   -1.3682    1.8433   -0.0090 C   0  0  0  0  0  0  0  0  0  0  0  0
  1  2  1  0
  2  3  1  0
  3  4  2  0
  3  5  1  0
  5  6  1  0
  6  7  1  0
  7  8  1  0
  8  9  2  0
  9 10  1  0
 10 11  1  0
 10 12  2  0
 12 13  1  0
 13 14  1  0
 13 15  2  0
 15 16  1  0
 16 17  2  0
 17 18  1  0
 18 19  2  0
 19 20  1  0
 20 21  2  0
 15  8  1  0
 21 16  1  0
M  END
>  <zinc_id>  (313) 
ZINC000013472724

>  <ortholog_name>  (313) 
DRTS_PLAFK

>  <gene_name>  (313) 
DRTS_PLAFK

>  <affinity>  (313) 
8.48

>  <chembldocid>  (313) 
17662

>  <title>  (313) 
None

>  <reference.pubmed_id>  (313) 
14736247

>  <reference.doi>  (313) 
None

>  <reference.chembl_id>  (313) 
CHEMBL1138835

>  <reference.journal>  (313) 
J. Med. Chem.

>  <reference.year>  (313) 
2004

$$$$

     RDKit          3D

 21 22  0  0  0  0  0  0  0  0999 V2000
    3.6029    2.7853    1.6402 C   0  0  0  0  0  0  0  0  0  0  0  0
    3.4824    1.3789    1.5254 O   0  0  0  0  0  0  0  0  0  0  0  0
    3.3185    0.7589    0.3046 C   0  0  0  0  0  0  0  0  0  0  0  0
    3.2802    1.5318   -0.7143 O   0  0  0  0  0  0  0  0  0  0  0  0
    3.1823   -0.6849    0.0624 C   0  0  0  0  0  0  0  0  0  0  0  0
    1.7827   -1.1545   -0.1373 C   0  0  0  0  0  0  0  0  0  0  0  0
    0.9136   -0.8717    1.0761 C   0  0  0  0  0  0  0  0  0  0  0  0
   -0.4801   -1.3534    0.8538 C   0  0  0  0  0  0  0  0  0  0  0  0
   -0.9480   -2.4955    1.3869 N   0  0  0  0  0  0  0  0  0  0  0  0
   -2.1790   -2.9490    1.1852 C   0  0  0  0  0  0  0  0  0  0  0  0
   -2.5809   -4.1703    1.7966 N   0  0  0  0  0  0  0  0  0  0  0  0
   -3.0038   -2.2243    0.4027 N   0  0  0  0  0  0  0  0  0  0  0  0
   -2.5839   -1.0710   -0.1562 C   0  0  0  0  0  0  0  0  0  0  0  0
   -3.4595   -0.2914   -0.9940 N   0  0  0  0  0  0  0  0  0  0  0  0
   -1.3094   -0.5794    0.0396 C   0  0  0  0  0  0  0  0  0  0  0  0
   -0.8672    0.6754   -0.5386 C   0  0  0  0  0  0  0  0  0  0  0  0
    0.0140    0.7067   -1.5828 C   0  0  0  0  0  0  0  0  0  0  0  0
    0.3709    1.9458   -2.0723 C   0  0  0  0  0  0  0  0  0  0  0  0
   -0.1344    3.1254   -1.5386 C   0  0  0  0  0  0  0  0  0  0  0  0
   -1.0332    3.0939   -0.4733 C   0  0  0  0  0  0  0  0  0  0  0  0
   -1.3682    1.8433   -0.0090 C   0  0  0  0  0  0  0  0  0  0  0  0
  1  2  1  0
  2  3  1  0
  3  4  2  0
  3  5  1  0
  5  6  1  0
  6  7  1  0
  7  8  1  0
  8  9  2  0
  9 10  1  0
 10 11  1  0
 10 12  2  0
 12 13  1  0
 13 14  1  0
 13 15  2  0
 15 16  1  0
 16 17  2  0
 17 18  1  0
 18 19  2  0
 19 20  1  0
 20 21  2  0
 15  8  1  0
 21 16  1  0
M  END
>  <zinc_id>  (314) 
ZINC000013472724

>  <ortholog_name>  (314) 
DRTS_PLAFK

>  <gene_name>  (314) 
DRTS_PLAFK

>  <affinity>  (314) 
8.26

>  <chembldocid>  (314) 
16871

>  <title>  (314) 
None

>  <reference.pubmed_id>  (314) 
11881993

>  <reference.doi>  (314) 
None

>  <reference.chembl_id>  (314) 
CHEMBL1135602

>  <reference.journal>  (314) 
J. Med. Chem.

>  <reference.year>  (314) 
2002

$$$$

     RDKit          3D

 20 21  0  0  0  0  0  0  0  0999 V2000
    6.5325    0.0690    0.4993 C   0  0  0  0  0  0  0  0  0  0  0  0
    5.0827    0.3482    0.9243 C   0  0  0  0  0  0  0  0  0  0  0  0
    4.2148    0.0736   -0.2237 C   0  0  0  0  0  0  0  0  0  0  0  0
    2.6995    0.3119    0.0620 C   0  0  0  0  0  0  0  0  0  0  0  0
    2.0200   -0.0199   -1.1645 C   0  0  0  0  0  0  0  0  0  0  0  0
    0.6573   -0.0330   -1.4838 C   0  0  0  0  0  0  0  0  0  0  0  0
   -0.2261   -0.8766   -0.6709 C   0  0  0  0  0  0  0  0  0  0  0  0
    0.0364   -2.2253   -0.6085 N   0  0  0  0  0  0  0  0  0  0  0  0
   -0.7054   -3.0411    0.1996 C   0  0  0  0  0  0  0  0  0  0  0  0
   -0.3803   -4.4047    0.2497 N   0  0  0  0  0  0  0  0  0  0  0  0
   -1.7081   -2.4886    0.9314 N   0  0  0  0  0  0  0  0  0  0  0  0
   -1.9857   -1.1835    0.8930 C   0  0  0  0  0  0  0  0  0  0  0  0
   -3.0546   -0.6195    1.6404 N   0  0  0  0  0  0  0  0  0  0  0  0
   -1.2469   -0.3467    0.0902 C   0  0  0  0  0  0  0  0  0  0  0  0
   -1.5968    1.0599    0.0249 C   0  0  0  0  0  0  0  0  0  0  0  0
   -2.7594    1.5236    0.6165 C   0  0  0  0  0  0  0  0  0  0  0  0
   -3.1262    2.8468    0.4910 C   0  0  0  0  0  0  0  0  0  0  0  0
   -2.3790    3.7411   -0.1988 C   0  0  0  0  0  0  0  0  0  0  0  0
   -1.2034    3.2964   -0.8023 C   0  0  0  0  0  0  0  0  0  0  0  0
   -0.8711    1.9686   -0.6595 C   0  0  0  0  0  0  0  0  0  0  0  0
  1  2  1  0
  2  3  1  0
  3  4  1  0
  4  5  1  0
  5  6  1  0
  6  7  1  0
  7  8  2  0
  8  9  1  0
  9 10  1  0
  9 11  2  0
 11 12  1  0
 12 13  1  0
 12 14  2  0
 14 15  1  0
 15 16  2  0
 16 17  1  0
 17 18  2  0
 18 19  1  0
 19 20  2  0
 14  7  1  0
 20 15  1  0
M  END
>  <zinc_id>  (315) 
ZINC000013472725

>  <ortholog_name>  (315) 
DRTS_PLAFK

>  <gene_name>  (315) 
DRTS_PLAFK

>  <affinity>  (315) 
9.52

>  <chembldocid>  (315) 
16871

>  <title>  (315) 
None

>  <reference.pubmed_id>  (315) 
11881993

>  <reference.doi>  (315) 
None

>  <reference.chembl_id>  (315) 
CHEMBL1135602

>  <reference.journal>  (315) 
J. Med. Chem.

>  <reference.year>  (315) 
2002

$$$$

     RDKit          3D

 20 21  0  0  0  0  0  0  0  0999 V2000
    6.5325    0.0690    0.4993 C   0  0  0  0  0  0  0  0  0  0  0  0
    5.0827    0.3482    0.9243 C   0  0  0  0  0  0  0  0  0  0  0  0
    4.2148    0.0736   -0.2237 C   0  0  0  0  0  0  0  0  0  0  0  0
    2.6995    0.3119    0.0620 C   0  0  0  0  0  0  0  0  0  0  0  0
    2.0200   -0.0199   -1.1645 C   0  0  0  0  0  0  0  0  0  0  0  0
    0.6573   -0.0330   -1.4838 C   0  0  0  0  0  0  0  0  0  0  0  0
   -0.2261   -0.8766   -0.6709 C   0  0  0  0  0  0  0  0  0  0  0  0
    0.0364   -2.2253   -0.6085 N   0  0  0  0  0  0  0  0  0  0  0  0
   -0.7054   -3.0411    0.1996 C   0  0  0  0  0  0  0  0  0  0  0  0
   -0.3803   -4.4047    0.2497 N   0  0  0  0  0  0  0  0  0  0  0  0
   -1.7081   -2.4886    0.9314 N   0  0  0  0  0  0  0  0  0  0  0  0
   -1.9857   -1.1835    0.8930 C   0  0  0  0  0  0  0  0  0  0  0  0
   -3.0546   -0.6195    1.6404 N   0  0  0  0  0  0  0  0  0  0  0  0
   -1.2469   -0.3467    0.0902 C   0  0  0  0  0  0  0  0  0  0  0  0
   -1.5968    1.0599    0.0249 C   0  0  0  0  0  0  0  0  0  0  0  0
   -2.7594    1.5236    0.6165 C   0  0  0  0  0  0  0  0  0  0  0  0
   -3.1262    2.8468    0.4910 C   0  0  0  0  0  0  0  0  0  0  0  0
   -2.3790    3.7411   -0.1988 C   0  0  0  0  0  0  0  0  0  0  0  0
   -1.2034    3.2964   -0.8023 C   0  0  0  0  0  0  0  0  0  0  0  0
   -0.8711    1.9686   -0.6595 C   0  0  0  0  0  0  0  0  0  0  0  0
  1  2  1  0
  2  3  1  0
  3  4  1  0
  4  5  1  0
  5  6  1  0
  6  7  1  0
  7  8  2  0
  8  9  1  0
  9 10  1  0
  9 11  2  0
 11 12  1  0
 12 13  1  0
 12 14  2  0
 14 15  1  0
 15 16  2  0
 16 17  1  0
 17 18  2  0
 18 19  1  0
 19 20  2  0
 14  7  1  0
 20 15  1  0
M  END
>  <zinc_id>  (316) 
ZINC000013472725

>  <ortholog_name>  (316) 
DRTS_PLAFK

>  <gene_name>  (316) 
DRTS_PLAFK

>  <affinity>  (316) 
9.52

>  <chembldocid>  (316) 
17662

>  <title>  (316) 
None

>  <reference.pubmed_id>  (316) 
14736247

>  <reference.doi>  (316) 
None

>  <reference.chembl_id>  (316) 
CHEMBL1138835

>  <reference.journal>  (316) 
J. Med. Chem.

>  <reference.year>  (316) 
2004

$$$$

     RDKit          3D

 20 21  0  0  0  0  0  0  0  0999 V2000
    6.5325    0.0690    0.4993 C   0  0  0  0  0  0  0  0  0  0  0  0
    5.0827    0.3482    0.9243 C   0  0  0  0  0  0  0  0  0  0  0  0
    4.2148    0.0736   -0.2237 C   0  0  0  0  0  0  0  0  0  0  0  0
    2.6995    0.3119    0.0620 C   0  0  0  0  0  0  0  0  0  0  0  0
    2.0200   -0.0199   -1.1645 C   0  0  0  0  0  0  0  0  0  0  0  0
    0.6573   -0.0330   -1.4838 C   0  0  0  0  0  0  0  0  0  0  0  0
   -0.2261   -0.8766   -0.6709 C   0  0  0  0  0  0  0  0  0  0  0  0
    0.0364   -2.2253   -0.6085 N   0  0  0  0  0  0  0  0  0  0  0  0
   -0.7054   -3.0411    0.1996 C   0  0  0  0  0  0  0  0  0  0  0  0
   -0.3803   -4.4047    0.2497 N   0  0  0  0  0  0  0  0  0  0  0  0
   -1.7081   -2.4886    0.9314 N   0  0  0  0  0  0  0  0  0  0  0  0
   -1.9857   -1.1835    0.8930 C   0  0  0  0  0  0  0  0  0  0  0  0
   -3.0546   -0.6195    1.6404 N   0  0  0  0  0  0  0  0  0  0  0  0
   -1.2469   -0.3467    0.0902 C   0  0  0  0  0  0  0  0  0  0  0  0
   -1.5968    1.0599    0.0249 C   0  0  0  0  0  0  0  0  0  0  0  0
   -2.7594    1.5236    0.6165 C   0  0  0  0  0  0  0  0  0  0  0  0
   -3.1262    2.8468    0.4910 C   0  0  0  0  0  0  0  0  0  0  0  0
   -2.3790    3.7411   -0.1988 C   0  0  0  0  0  0  0  0  0  0  0  0
   -1.2034    3.2964   -0.8023 C   0  0  0  0  0  0  0  0  0  0  0  0
   -0.8711    1.9686   -0.6595 C   0  0  0  0  0  0  0  0  0  0  0  0
  1  2  1  0
  2  3  1  0
  3  4  1  0
  4  5  1  0
  5  6  1  0
  6  7  1  0
  7  8  2  0
  8  9  1  0
  9 10  1  0
  9 11  2  0
 11 12  1  0
 12 13  1  0
 12 14  2  0
 14 15  1  0
 15 16  2  0
 16 17  1  0
 17 18  2  0
 18 19  1  0
 19 20  2  0
 14  7  1  0
 20 15  1  0
M  END
>  <zinc_id>  (317) 
ZINC000013472725

>  <ortholog_name>  (317) 
DRTS_PLAFK

>  <gene_name>  (317) 
DRTS_PLAFK

>  <affinity>  (317) 
9.40

>  <chembldocid>  (317) 
17662

>  <title>  (317) 
None

>  <reference.pubmed_id>  (317) 
14736247

>  <reference.doi>  (317) 
None

>  <reference.chembl_id>  (317) 
CHEMBL1138835

>  <reference.journal>  (317) 
J. Med. Chem.

>  <reference.year>  (317) 
2004

$$$$

     RDKit          3D

 20 21  0  0  0  0  0  0  0  0999 V2000
    6.5325    0.0690    0.4993 C   0  0  0  0  0  0  0  0  0  0  0  0
    5.0827    0.3482    0.9243 C   0  0  0  0  0  0  0  0  0  0  0  0
    4.2148    0.0736   -0.2237 C   0  0  0  0  0  0  0  0  0  0  0  0
    2.6995    0.3119    0.0620 C   0  0  0  0  0  0  0  0  0  0  0  0
    2.0200   -0.0199   -1.1645 C   0  0  0  0  0  0  0  0  0  0  0  0
    0.6573   -0.0330   -1.4838 C   0  0  0  0  0  0  0  0  0  0  0  0
   -0.2261   -0.8766   -0.6709 C   0  0  0  0  0  0  0  0  0  0  0  0
    0.0364   -2.2253   -0.6085 N   0  0  0  0  0  0  0  0  0  0  0  0
   -0.7054   -3.0411    0.1996 C   0  0  0  0  0  0  0  0  0  0  0  0
   -0.3803   -4.4047    0.2497 N   0  0  0  0  0  0  0  0  0  0  0  0
   -1.7081   -2.4886    0.9314 N   0  0  0  0  0  0  0  0  0  0  0  0
   -1.9857   -1.1835    0.8930 C   0  0  0  0  0  0  0  0  0  0  0  0
   -3.0546   -0.6195    1.6404 N   0  0  0  0  0  0  0  0  0  0  0  0
   -1.2469   -0.3467    0.0902 C   0  0  0  0  0  0  0  0  0  0  0  0
   -1.5968    1.0599    0.0249 C   0  0  0  0  0  0  0  0  0  0  0  0
   -2.7594    1.5236    0.6165 C   0  0  0  0  0  0  0  0  0  0  0  0
   -3.1262    2.8468    0.4910 C   0  0  0  0  0  0  0  0  0  0  0  0
   -2.3790    3.7411   -0.1988 C   0  0  0  0  0  0  0  0  0  0  0  0
   -1.2034    3.2964   -0.8023 C   0  0  0  0  0  0  0  0  0  0  0  0
   -0.8711    1.9686   -0.6595 C   0  0  0  0  0  0  0  0  0  0  0  0
  1  2  1  0
  2  3  1  0
  3  4  1  0
  4  5  1  0
  5  6  1  0
  6  7  1  0
  7  8  2  0
  8  9  1  0
  9 10  1  0
  9 11  2  0
 11 12  1  0
 12 13  1  0
 12 14  2  0
 14 15  1  0
 15 16  2  0
 16 17  1  0
 17 18  2  0
 18 19  1  0
 19 20  2  0
 14  7  1  0
 20 15  1  0
M  END
>  <zinc_id>  (318) 
ZINC000013472725

>  <ortholog_name>  (318) 
DRTS_PLAFK

>  <gene_name>  (318) 
DRTS_PLAFK

>  <affinity>  (318) 
9.15

>  <chembldocid>  (318) 
16871

>  <title>  (318) 
None

>  <reference.pubmed_id>  (318) 
11881993

>  <reference.doi>  (318) 
None

>  <reference.chembl_id>  (318) 
CHEMBL1135602

>  <reference.journal>  (318) 
J. Med. Chem.

>  <reference.year>  (318) 
2002

$$$$

     RDKit          3D

 20 21  0  0  0  0  0  0  0  0999 V2000
    6.5325    0.0690    0.4993 C   0  0  0  0  0  0  0  0  0  0  0  0
    5.0827    0.3482    0.9243 C   0  0  0  0  0  0  0  0  0  0  0  0
    4.2148    0.0736   -0.2237 C   0  0  0  0  0  0  0  0  0  0  0  0
    2.6995    0.3119    0.0620 C   0  0  0  0  0  0  0  0  0  0  0  0
    2.0200   -0.0199   -1.1645 C   0  0  0  0  0  0  0  0  0  0  0  0
    0.6573   -0.0330   -1.4838 C   0  0  0  0  0  0  0  0  0  0  0  0
   -0.2261   -0.8766   -0.6709 C   0  0  0  0  0  0  0  0  0  0  0  0
    0.0364   -2.2253   -0.6085 N   0  0  0  0  0  0  0  0  0  0  0  0
   -0.7054   -3.0411    0.1996 C   0  0  0  0  0  0  0  0  0  0  0  0
   -0.3803   -4.4047    0.2497 N   0  0  0  0  0  0  0  0  0  0  0  0
   -1.7081   -2.4886    0.9314 N   0  0  0  0  0  0  0  0  0  0  0  0
   -1.9857   -1.1835    0.8930 C   0  0  0  0  0  0  0  0  0  0  0  0
   -3.0546   -0.6195    1.6404 N   0  0  0  0  0  0  0  0  0  0  0  0
   -1.2469   -0.3467    0.0902 C   0  0  0  0  0  0  0  0  0  0  0  0
   -1.5968    1.0599    0.0249 C   0  0  0  0  0  0  0  0  0  0  0  0
   -2.7594    1.5236    0.6165 C   0  0  0  0  0  0  0  0  0  0  0  0
   -3.1262    2.8468    0.4910 C   0  0  0  0  0  0  0  0  0  0  0  0
   -2.3790    3.7411   -0.1988 C   0  0  0  0  0  0  0  0  0  0  0  0
   -1.2034    3.2964   -0.8023 C   0  0  0  0  0  0  0  0  0  0  0  0
   -0.8711    1.9686   -0.6595 C   0  0  0  0  0  0  0  0  0  0  0  0
  1  2  1  0
  2  3  1  0
  3  4  1  0
  4  5  1  0
  5  6  1  0
  6  7  1  0
  7  8  2  0
  8  9  1  0
  9 10  1  0
  9 11  2  0
 11 12  1  0
 12 13  1  0
 12 14  2  0
 14 15  1  0
 15 16  2  0
 16 17  1  0
 17 18  2  0
 18 19  1  0
 19 20  2  0
 14  7  1  0
 20 15  1  0
M  END
>  <zinc_id>  (319) 
ZINC000013472725

>  <ortholog_name>  (319) 
DRTS_PLAFK

>  <gene_name>  (319) 
DRTS_PLAFK

>  <affinity>  (319) 
9.15

>  <chembldocid>  (319) 
17662

>  <title>  (319) 
None

>  <reference.pubmed_id>  (319) 
14736247

>  <reference.doi>  (319) 
None

>  <reference.chembl_id>  (319) 
CHEMBL1138835

>  <reference.journal>  (319) 
J. Med. Chem.

>  <reference.year>  (319) 
2004

$$$$

     RDKit          3D

 20 21  0  0  0  0  0  0  0  0999 V2000
    6.5325    0.0690    0.4993 C   0  0  0  0  0  0  0  0  0  0  0  0
    5.0827    0.3482    0.9243 C   0  0  0  0  0  0  0  0  0  0  0  0
    4.2148    0.0736   -0.2237 C   0  0  0  0  0  0  0  0  0  0  0  0
    2.6995    0.3119    0.0620 C   0  0  0  0  0  0  0  0  0  0  0  0
    2.0200   -0.0199   -1.1645 C   0  0  0  0  0  0  0  0  0  0  0  0
    0.6573   -0.0330   -1.4838 C   0  0  0  0  0  0  0  0  0  0  0  0
   -0.2261   -0.8766   -0.6709 C   0  0  0  0  0  0  0  0  0  0  0  0
    0.0364   -2.2253   -0.6085 N   0  0  0  0  0  0  0  0  0  0  0  0
   -0.7054   -3.0411    0.1996 C   0  0  0  0  0  0  0  0  0  0  0  0
   -0.3803   -4.4047    0.2497 N   0  0  0  0  0  0  0  0  0  0  0  0
   -1.7081   -2.4886    0.9314 N   0  0  0  0  0  0  0  0  0  0  0  0
   -1.9857   -1.1835    0.8930 C   0  0  0  0  0  0  0  0  0  0  0  0
   -3.0546   -0.6195    1.6404 N   0  0  0  0  0  0  0  0  0  0  0  0
   -1.2469   -0.3467    0.0902 C   0  0  0  0  0  0  0  0  0  0  0  0
   -1.5968    1.0599    0.0249 C   0  0  0  0  0  0  0  0  0  0  0  0
   -2.7594    1.5236    0.6165 C   0  0  0  0  0  0  0  0  0  0  0  0
   -3.1262    2.8468    0.4910 C   0  0  0  0  0  0  0  0  0  0  0  0
   -2.3790    3.7411   -0.1988 C   0  0  0  0  0  0  0  0  0  0  0  0
   -1.2034    3.2964   -0.8023 C   0  0  0  0  0  0  0  0  0  0  0  0
   -0.8711    1.9686   -0.6595 C   0  0  0  0  0  0  0  0  0  0  0  0
  1  2  1  0
  2  3  1  0
  3  4  1  0
  4  5  1  0
  5  6  1  0
  6  7  1  0
  7  8  2  0
  8  9  1  0
  9 10  1  0
  9 11  2  0
 11 12  1  0
 12 13  1  0
 12 14  2  0
 14 15  1  0
 15 16  2  0
 16 17  1  0
 17 18  2  0
 18 19  1  0
 19 20  2  0
 14  7  1  0
 20 15  1  0
M  END
>  <zinc_id>  (320) 
ZINC000013472725

>  <ortholog_name>  (320) 
DRTS_PLAFK

>  <gene_name>  (320) 
DRTS_PLAFK

>  <affinity>  (320) 
8.92

>  <chembldocid>  (320) 
16871

>  <title>  (320) 
None

>  <reference.pubmed_id>  (320) 
11881993

>  <reference.doi>  (320) 
None

>  <reference.chembl_id>  (320) 
CHEMBL1135602

>  <reference.journal>  (320) 
J. Med. Chem.

>  <reference.year>  (320) 
2002

$$$$

     RDKit          3D

 20 21  0  0  0  0  0  0  0  0999 V2000
    6.5325    0.0690    0.4993 C   0  0  0  0  0  0  0  0  0  0  0  0
    5.0827    0.3482    0.9243 C   0  0  0  0  0  0  0  0  0  0  0  0
    4.2148    0.0736   -0.2237 C   0  0  0  0  0  0  0  0  0  0  0  0
    2.6995    0.3119    0.0620 C   0  0  0  0  0  0  0  0  0  0  0  0
    2.0200   -0.0199   -1.1645 C   0  0  0  0  0  0  0  0  0  0  0  0
    0.6573   -0.0330   -1.4838 C   0  0  0  0  0  0  0  0  0  0  0  0
   -0.2261   -0.8766   -0.6709 C   0  0  0  0  0  0  0  0  0  0  0  0
    0.0364   -2.2253   -0.6085 N   0  0  0  0  0  0  0  0  0  0  0  0
   -0.7054   -3.0411    0.1996 C   0  0  0  0  0  0  0  0  0  0  0  0
   -0.3803   -4.4047    0.2497 N   0  0  0  0  0  0  0  0  0  0  0  0
   -1.7081   -2.4886    0.9314 N   0  0  0  0  0  0  0  0  0  0  0  0
   -1.9857   -1.1835    0.8930 C   0  0  0  0  0  0  0  0  0  0  0  0
   -3.0546   -0.6195    1.6404 N   0  0  0  0  0  0  0  0  0  0  0  0
   -1.2469   -0.3467    0.0902 C   0  0  0  0  0  0  0  0  0  0  0  0
   -1.5968    1.0599    0.0249 C   0  0  0  0  0  0  0  0  0  0  0  0
   -2.7594    1.5236    0.6165 C   0  0  0  0  0  0  0  0  0  0  0  0
   -3.1262    2.8468    0.4910 C   0  0  0  0  0  0  0  0  0  0  0  0
   -2.3790    3.7411   -0.1988 C   0  0  0  0  0  0  0  0  0  0  0  0
   -1.2034    3.2964   -0.8023 C   0  0  0  0  0  0  0  0  0  0  0  0
   -0.8711    1.9686   -0.6595 C   0  0  0  0  0  0  0  0  0  0  0  0
  1  2  1  0
  2  3  1  0
  3  4  1  0
  4  5  1  0
  5  6  1  0
  6  7  1  0
  7  8  2  0
  8  9  1  0
  9 10  1  0
  9 11  2  0
 11 12  1  0
 12 13  1  0
 12 14  2  0
 14 15  1  0
 15 16  2  0
 16 17  1  0
 17 18  2  0
 18 19  1  0
 19 20  2  0
 14  7  1  0
 20 15  1  0
M  END
>  <zinc_id>  (321) 
ZINC000013472725

>  <ortholog_name>  (321) 
DRTS_PLAFK

>  <gene_name>  (321) 
DRTS_PLAFK

>  <affinity>  (321) 
8.85

>  <chembldocid>  (321) 
17662

>  <title>  (321) 
None

>  <reference.pubmed_id>  (321) 
14736247

>  <reference.doi>  (321) 
None

>  <reference.chembl_id>  (321) 
CHEMBL1138835

>  <reference.journal>  (321) 
J. Med. Chem.

>  <reference.year>  (321) 
2004

$$$$

     RDKit          3D

 20 21  0  0  0  0  0  0  0  0999 V2000
    6.5325    0.0690    0.4993 C   0  0  0  0  0  0  0  0  0  0  0  0
    5.0827    0.3482    0.9243 C   0  0  0  0  0  0  0  0  0  0  0  0
    4.2148    0.0736   -0.2237 C   0  0  0  0  0  0  0  0  0  0  0  0
    2.6995    0.3119    0.0620 C   0  0  0  0  0  0  0  0  0  0  0  0
    2.0200   -0.0199   -1.1645 C   0  0  0  0  0  0  0  0  0  0  0  0
    0.6573   -0.0330   -1.4838 C   0  0  0  0  0  0  0  0  0  0  0  0
   -0.2261   -0.8766   -0.6709 C   0  0  0  0  0  0  0  0  0  0  0  0
    0.0364   -2.2253   -0.6085 N   0  0  0  0  0  0  0  0  0  0  0  0
   -0.7054   -3.0411    0.1996 C   0  0  0  0  0  0  0  0  0  0  0  0
   -0.3803   -4.4047    0.2497 N   0  0  0  0  0  0  0  0  0  0  0  0
   -1.7081   -2.4886    0.9314 N   0  0  0  0  0  0  0  0  0  0  0  0
   -1.9857   -1.1835    0.8930 C   0  0  0  0  0  0  0  0  0  0  0  0
   -3.0546   -0.6195    1.6404 N   0  0  0  0  0  0  0  0  0  0  0  0
   -1.2469   -0.3467    0.0902 C   0  0  0  0  0  0  0  0  0  0  0  0
   -1.5968    1.0599    0.0249 C   0  0  0  0  0  0  0  0  0  0  0  0
   -2.7594    1.5236    0.6165 C   0  0  0  0  0  0  0  0  0  0  0  0
   -3.1262    2.8468    0.4910 C   0  0  0  0  0  0  0  0  0  0  0  0
   -2.3790    3.7411   -0.1988 C   0  0  0  0  0  0  0  0  0  0  0  0
   -1.2034    3.2964   -0.8023 C   0  0  0  0  0  0  0  0  0  0  0  0
   -0.8711    1.9686   -0.6595 C   0  0  0  0  0  0  0  0  0  0  0  0
  1  2  1  0
  2  3  1  0
  3  4  1  0
  4  5  1  0
  5  6  1  0
  6  7  1  0
  7  8  2  0
  8  9  1  0
  9 10  1  0
  9 11  2  0
 11 12  1  0
 12 13  1  0
 12 14  2  0
 14 15  1  0
 15 16  2  0
 16 17  1  0
 17 18  2  0
 18 19  1  0
 19 20  2  0
 14  7  1  0
 20 15  1  0
M  END
>  <zinc_id>  (322) 
ZINC000013472725

>  <ortholog_name>  (322) 
DRTS_PLAFK

>  <gene_name>  (322) 
DRTS_PLAFK

>  <affinity>  (322) 
8.00

>  <chembldocid>  (322) 
21047

>  <title>  (322) 
None

>  <reference.pubmed_id>  (322) 
15293997

>  <reference.doi>  (322) 
None

>  <reference.chembl_id>  (322) 
CHEMBL1138679

>  <reference.journal>  (322) 
J. Med. Chem.

>  <reference.year>  (322) 
2004

$$$$

     RDKit          3D

 20 21  0  0  0  0  0  0  0  0999 V2000
    6.5325    0.0690    0.4993 C   0  0  0  0  0  0  0  0  0  0  0  0
    5.0827    0.3482    0.9243 C   0  0  0  0  0  0  0  0  0  0  0  0
    4.2148    0.0736   -0.2237 C   0  0  0  0  0  0  0  0  0  0  0  0
    2.6995    0.3119    0.0620 C   0  0  0  0  0  0  0  0  0  0  0  0
    2.0200   -0.0199   -1.1645 C   0  0  0  0  0  0  0  0  0  0  0  0
    0.6573   -0.0330   -1.4838 C   0  0  0  0  0  0  0  0  0  0  0  0
   -0.2261   -0.8766   -0.6709 C   0  0  0  0  0  0  0  0  0  0  0  0
    0.0364   -2.2253   -0.6085 N   0  0  0  0  0  0  0  0  0  0  0  0
   -0.7054   -3.0411    0.1996 C   0  0  0  0  0  0  0  0  0  0  0  0
   -0.3803   -4.4047    0.2497 N   0  0  0  0  0  0  0  0  0  0  0  0
   -1.7081   -2.4886    0.9314 N   0  0  0  0  0  0  0  0  0  0  0  0
   -1.9857   -1.1835    0.8930 C   0  0  0  0  0  0  0  0  0  0  0  0
   -3.0546   -0.6195    1.6404 N   0  0  0  0  0  0  0  0  0  0  0  0
   -1.2469   -0.3467    0.0902 C   0  0  0  0  0  0  0  0  0  0  0  0
   -1.5968    1.0599    0.0249 C   0  0  0  0  0  0  0  0  0  0  0  0
   -2.7594    1.5236    0.6165 C   0  0  0  0  0  0  0  0  0  0  0  0
   -3.1262    2.8468    0.4910 C   0  0  0  0  0  0  0  0  0  0  0  0
   -2.3790    3.7411   -0.1988 C   0  0  0  0  0  0  0  0  0  0  0  0
   -1.2034    3.2964   -0.8023 C   0  0  0  0  0  0  0  0  0  0  0  0
   -0.8711    1.9686   -0.6595 C   0  0  0  0  0  0  0  0  0  0  0  0
  1  2  1  0
  2  3  1  0
  3  4  1  0
  4  5  1  0
  5  6  1  0
  6  7  1  0
  7  8  2  0
  8  9  1  0
  9 10  1  0
  9 11  2  0
 11 12  1  0
 12 13  1  0
 12 14  2  0
 14 15  1  0
 15 16  2  0
 16 17  1  0
 17 18  2  0
 18 19  1  0
 19 20  2  0
 14  7  1  0
 20 15  1  0
M  END
>  <zinc_id>  (323) 
ZINC000013472725

>  <ortholog_name>  (323) 
DRTS_PLAFK

>  <gene_name>  (323) 
DRTS_PLAFK

>  <affinity>  (323) 
5.89

>  <chembldocid>  (323) 
16871

>  <title>  (323) 
None

>  <reference.pubmed_id>  (323) 
11881993

>  <reference.doi>  (323) 
None

>  <reference.chembl_id>  (323) 
CHEMBL1135602

>  <reference.journal>  (323) 
J. Med. Chem.

>  <reference.year>  (323) 
2002

$$$$

     RDKit          3D

 20 21  0  0  0  0  0  0  0  0999 V2000
    6.5325    0.0690    0.4993 C   0  0  0  0  0  0  0  0  0  0  0  0
    5.0827    0.3482    0.9243 C   0  0  0  0  0  0  0  0  0  0  0  0
    4.2148    0.0736   -0.2237 C   0  0  0  0  0  0  0  0  0  0  0  0
    2.6995    0.3119    0.0620 C   0  0  0  0  0  0  0  0  0  0  0  0
    2.0200   -0.0199   -1.1645 C   0  0  0  0  0  0  0  0  0  0  0  0
    0.6573   -0.0330   -1.4838 C   0  0  0  0  0  0  0  0  0  0  0  0
   -0.2261   -0.8766   -0.6709 C   0  0  0  0  0  0  0  0  0  0  0  0
    0.0364   -2.2253   -0.6085 N   0  0  0  0  0  0  0  0  0  0  0  0
   -0.7054   -3.0411    0.1996 C   0  0  0  0  0  0  0  0  0  0  0  0
   -0.3803   -4.4047    0.2497 N   0  0  0  0  0  0  0  0  0  0  0  0
   -1.7081   -2.4886    0.9314 N   0  0  0  0  0  0  0  0  0  0  0  0
   -1.9857   -1.1835    0.8930 C   0  0  0  0  0  0  0  0  0  0  0  0
   -3.0546   -0.6195    1.6404 N   0  0  0  0  0  0  0  0  0  0  0  0
   -1.2469   -0.3467    0.0902 C   0  0  0  0  0  0  0  0  0  0  0  0
   -1.5968    1.0599    0.0249 C   0  0  0  0  0  0  0  0  0  0  0  0
   -2.7594    1.5236    0.6165 C   0  0  0  0  0  0  0  0  0  0  0  0
   -3.1262    2.8468    0.4910 C   0  0  0  0  0  0  0  0  0  0  0  0
   -2.3790    3.7411   -0.1988 C   0  0  0  0  0  0  0  0  0  0  0  0
   -1.2034    3.2964   -0.8023 C   0  0  0  0  0  0  0  0  0  0  0  0
   -0.8711    1.9686   -0.6595 C   0  0  0  0  0  0  0  0  0  0  0  0
  1  2  1  0
  2  3  1  0
  3  4  1  0
  4  5  1  0
  5  6  1  0
  6  7  1  0
  7  8  2  0
  8  9  1  0
  9 10  1  0
  9 11  2  0
 11 12  1  0
 12 13  1  0
 12 14  2  0
 14 15  1  0
 15 16  2  0
 16 17  1  0
 17 18  2  0
 18 19  1  0
 19 20  2  0
 14  7  1  0
 20 15  1  0
M  END
>  <zinc_id>  (324) 
ZINC000013472725

>  <ortholog_name>  (324) 
DRTS_PLAFK

>  <gene_name>  (324) 
DRTS_PLAFK

>  <affinity>  (324) 
5.64

>  <chembldocid>  (324) 
17662

>  <title>  (324) 
None

>  <reference.pubmed_id>  (324) 
14736247

>  <reference.doi>  (324) 
None

>  <reference.chembl_id>  (324) 
CHEMBL1138835

>  <reference.journal>  (324) 
J. Med. Chem.

>  <reference.year>  (324) 
2004

$$$$

     RDKit          3D

 20 21  0  0  0  0  0  0  0  0999 V2000
    6.5325    0.0690    0.4993 C   0  0  0  0  0  0  0  0  0  0  0  0
    5.0827    0.3482    0.9243 C   0  0  0  0  0  0  0  0  0  0  0  0
    4.2148    0.0736   -0.2237 C   0  0  0  0  0  0  0  0  0  0  0  0
    2.6995    0.3119    0.0620 C   0  0  0  0  0  0  0  0  0  0  0  0
    2.0200   -0.0199   -1.1645 C   0  0  0  0  0  0  0  0  0  0  0  0
    0.6573   -0.0330   -1.4838 C   0  0  0  0  0  0  0  0  0  0  0  0
   -0.2261   -0.8766   -0.6709 C   0  0  0  0  0  0  0  0  0  0  0  0
    0.0364   -2.2253   -0.6085 N   0  0  0  0  0  0  0  0  0  0  0  0
   -0.7054   -3.0411    0.1996 C   0  0  0  0  0  0  0  0  0  0  0  0
   -0.3803   -4.4047    0.2497 N   0  0  0  0  0  0  0  0  0  0  0  0
   -1.7081   -2.4886    0.9314 N   0  0  0  0  0  0  0  0  0  0  0  0
   -1.9857   -1.1835    0.8930 C   0  0  0  0  0  0  0  0  0  0  0  0
   -3.0546   -0.6195    1.6404 N   0  0  0  0  0  0  0  0  0  0  0  0
   -1.2469   -0.3467    0.0902 C   0  0  0  0  0  0  0  0  0  0  0  0
   -1.5968    1.0599    0.0249 C   0  0  0  0  0  0  0  0  0  0  0  0
   -2.7594    1.5236    0.6165 C   0  0  0  0  0  0  0  0  0  0  0  0
   -3.1262    2.8468    0.4910 C   0  0  0  0  0  0  0  0  0  0  0  0
   -2.3790    3.7411   -0.1988 C   0  0  0  0  0  0  0  0  0  0  0  0
   -1.2034    3.2964   -0.8023 C   0  0  0  0  0  0  0  0  0  0  0  0
   -0.8711    1.9686   -0.6595 C   0  0  0  0  0  0  0  0  0  0  0  0
  1  2  1  0
  2  3  1  0
  3  4  1  0
  4  5  1  0
  5  6  1  0
  6  7  1  0
  7  8  2  0
  8  9  1  0
  9 10  1  0
  9 11  2  0
 11 12  1  0
 12 13  1  0
 12 14  2  0
 14 15  1  0
 15 16  2  0
 16 17  1  0
 17 18  2  0
 18 19  1  0
 19 20  2  0
 14  7  1  0
 20 15  1  0
M  END
>  <zinc_id>  (325) 
ZINC000013472725

>  <ortholog_name>  (325) 
DRTS_PLAFK

>  <gene_name>  (325) 
DRTS_PLAFK

>  <affinity>  (325) 
5.52

>  <chembldocid>  (325) 
17662

>  <title>  (325) 
None

>  <reference.pubmed_id>  (325) 
14736247

>  <reference.doi>  (325) 
None

>  <reference.chembl_id>  (325) 
CHEMBL1138835

>  <reference.journal>  (325) 
J. Med. Chem.

>  <reference.year>  (325) 
2004

$$$$

     RDKit          3D

 20 21  0  0  0  0  0  0  0  0999 V2000
    6.5325    0.0690    0.4993 C   0  0  0  0  0  0  0  0  0  0  0  0
    5.0827    0.3482    0.9243 C   0  0  0  0  0  0  0  0  0  0  0  0
    4.2148    0.0736   -0.2237 C   0  0  0  0  0  0  0  0  0  0  0  0
    2.6995    0.3119    0.0620 C   0  0  0  0  0  0  0  0  0  0  0  0
    2.0200   -0.0199   -1.1645 C   0  0  0  0  0  0  0  0  0  0  0  0
    0.6573   -0.0330   -1.4838 C   0  0  0  0  0  0  0  0  0  0  0  0
   -0.2261   -0.8766   -0.6709 C   0  0  0  0  0  0  0  0  0  0  0  0
    0.0364   -2.2253   -0.6085 N   0  0  0  0  0  0  0  0  0  0  0  0
   -0.7054   -3.0411    0.1996 C   0  0  0  0  0  0  0  0  0  0  0  0
   -0.3803   -4.4047    0.2497 N   0  0  0  0  0  0  0  0  0  0  0  0
   -1.7081   -2.4886    0.9314 N   0  0  0  0  0  0  0  0  0  0  0  0
   -1.9857   -1.1835    0.8930 C   0  0  0  0  0  0  0  0  0  0  0  0
   -3.0546   -0.6195    1.6404 N   0  0  0  0  0  0  0  0  0  0  0  0
   -1.2469   -0.3467    0.0902 C   0  0  0  0  0  0  0  0  0  0  0  0
   -1.5968    1.0599    0.0249 C   0  0  0  0  0  0  0  0  0  0  0  0
   -2.7594    1.5236    0.6165 C   0  0  0  0  0  0  0  0  0  0  0  0
   -3.1262    2.8468    0.4910 C   0  0  0  0  0  0  0  0  0  0  0  0
   -2.3790    3.7411   -0.1988 C   0  0  0  0  0  0  0  0  0  0  0  0
   -1.2034    3.2964   -0.8023 C   0  0  0  0  0  0  0  0  0  0  0  0
   -0.8711    1.9686   -0.6595 C   0  0  0  0  0  0  0  0  0  0  0  0
  1  2  1  0
  2  3  1  0
  3  4  1  0
  4  5  1  0
  5  6  1  0
  6  7  1  0
  7  8  2  0
  8  9  1  0
  9 10  1  0
  9 11  2  0
 11 12  1  0
 12 13  1  0
 12 14  2  0
 14 15  1  0
 15 16  2  0
 16 17  1  0
 17 18  2  0
 18 19  1  0
 19 20  2  0
 14  7  1  0
 20 15  1  0
M  END
>  <zinc_id>  (326) 
ZINC000013472725

>  <ortholog_name>  (326) 
DRTS_PLAFK

>  <gene_name>  (326) 
DRTS_PLAFK

>  <affinity>  (326) 
7.22

>  <chembldocid>  (326) 
17662

>  <title>  (326) 
None

>  <reference.pubmed_id>  (326) 
14736247

>  <reference.doi>  (326) 
None

>  <reference.chembl_id>  (326) 
CHEMBL1138835

>  <reference.journal>  (326) 
J. Med. Chem.

>  <reference.year>  (326) 
2004

$$$$

     RDKit          3D

 20 21  0  0  0  0  0  0  0  0999 V2000
    6.5325    0.0690    0.4993 C   0  0  0  0  0  0  0  0  0  0  0  0
    5.0827    0.3482    0.9243 C   0  0  0  0  0  0  0  0  0  0  0  0
    4.2148    0.0736   -0.2237 C   0  0  0  0  0  0  0  0  0  0  0  0
    2.6995    0.3119    0.0620 C   0  0  0  0  0  0  0  0  0  0  0  0
    2.0200   -0.0199   -1.1645 C   0  0  0  0  0  0  0  0  0  0  0  0
    0.6573   -0.0330   -1.4838 C   0  0  0  0  0  0  0  0  0  0  0  0
   -0.2261   -0.8766   -0.6709 C   0  0  0  0  0  0  0  0  0  0  0  0
    0.0364   -2.2253   -0.6085 N   0  0  0  0  0  0  0  0  0  0  0  0
   -0.7054   -3.0411    0.1996 C   0  0  0  0  0  0  0  0  0  0  0  0
   -0.3803   -4.4047    0.2497 N   0  0  0  0  0  0  0  0  0  0  0  0
   -1.7081   -2.4886    0.9314 N   0  0  0  0  0  0  0  0  0  0  0  0
   -1.9857   -1.1835    0.8930 C   0  0  0  0  0  0  0  0  0  0  0  0
   -3.0546   -0.6195    1.6404 N   0  0  0  0  0  0  0  0  0  0  0  0
   -1.2469   -0.3467    0.0902 C   0  0  0  0  0  0  0  0  0  0  0  0
   -1.5968    1.0599    0.0249 C   0  0  0  0  0  0  0  0  0  0  0  0
   -2.7594    1.5236    0.6165 C   0  0  0  0  0  0  0  0  0  0  0  0
   -3.1262    2.8468    0.4910 C   0  0  0  0  0  0  0  0  0  0  0  0
   -2.3790    3.7411   -0.1988 C   0  0  0  0  0  0  0  0  0  0  0  0
   -1.2034    3.2964   -0.8023 C   0  0  0  0  0  0  0  0  0  0  0  0
   -0.8711    1.9686   -0.6595 C   0  0  0  0  0  0  0  0  0  0  0  0
  1  2  1  0
  2  3  1  0
  3  4  1  0
  4  5  1  0
  5  6  1  0
  6  7  1  0
  7  8  2  0
  8  9  1  0
  9 10  1  0
  9 11  2  0
 11 12  1  0
 12 13  1  0
 12 14  2  0
 14 15  1  0
 15 16  2  0
 16 17  1  0
 17 18  2  0
 18 19  1  0
 19 20  2  0
 14  7  1  0
 20 15  1  0
M  END
>  <zinc_id>  (327) 
ZINC000013472725

>  <ortholog_name>  (327) 
DRTS_PLAFK

>  <gene_name>  (327) 
DRTS_PLAFK

>  <affinity>  (327) 
5.19

>  <chembldocid>  (327) 
17662

>  <title>  (327) 
None

>  <reference.pubmed_id>  (327) 
14736247

>  <reference.doi>  (327) 
None

>  <reference.chembl_id>  (327) 
CHEMBL1138835

>  <reference.journal>  (327) 
J. Med. Chem.

>  <reference.year>  (327) 
2004

$$$$

     RDKit          3D

 23 25  0  0  0  0  0  0  0  0999 V2000
   -0.5444   -4.6996    0.5819 N   0  0  0  0  0  0  0  0  0  0  0  0
   -0.9152   -3.3231    0.4860 C   0  0  0  0  0  0  0  0  0  0  0  0
   -1.6464   -2.7326    1.4549 N   0  0  0  0  0  0  0  0  0  0  0  0
   -2.0092   -1.4397    1.3909 C   0  0  0  0  0  0  0  0  0  0  0  0
   -2.7788   -0.8204    2.4129 N   0  0  0  0  0  0  0  0  0  0  0  0
   -1.6412   -0.6556    0.3144 C   0  0  0  0  0  0  0  0  0  0  0  0
   -1.9998    0.7474    0.1840 C   0  0  0  0  0  0  0  0  0  0  0  0
   -3.2668    1.1014   -0.2716 C   0  0  0  0  0  0  0  0  0  0  0  0
   -3.6879    2.3918   -0.4246 C   0  0  0  0  0  0  0  0  0  0  0  0
   -2.8261    3.4241   -0.1166 C   0  0  0  0  0  0  0  0  0  0  0  0
   -1.5597    3.1204    0.3384 C   0  0  0  0  0  0  0  0  0  0  0  0
   -1.1544    1.7877    0.4859 C   0  0  0  0  0  0  0  0  0  0  0  0
   -0.8952   -1.2611   -0.6723 C   0  0  0  0  0  0  0  0  0  0  0  0
   -0.4878   -0.4274   -1.8421 C   0  0  0  0  0  0  0  0  0  0  0  0
    0.6613    0.4452   -1.3155 C   0  0  0  0  0  0  0  0  0  0  0  0
    1.7278   -0.5529   -0.8626 C   0  0  0  0  0  0  0  0  0  0  0  0
    2.8774    0.2071   -0.3349 C   0  0  0  0  0  0  0  0  0  0  0  0
    3.9098    0.5933   -1.1507 C   0  0  0  0  0  0  0  0  0  0  0  0
    4.9715    1.2955   -0.6561 C   0  0  0  0  0  0  0  0  0  0  0  0
    4.9703    1.6042    0.6982 C   0  0  0  0  0  0  0  0  0  0  0  0
    3.9468    1.2257    1.5266 C   0  0  0  0  0  0  0  0  0  0  0  0
    2.9048    0.5275    1.0018 C   0  0  0  0  0  0  0  0  0  0  0  0
   -0.5569   -2.5591   -0.5624 N   0  0  0  0  0  0  0  0  0  0  0  0
  1  2  1  0
  2  3  2  0
  3  4  1  0
  4  5  1  0
  4  6  2  0
  6  7  1  0
  7  8  2  0
  8  9  1  0
  9 10  2  0
 10 11  1  0
 11 12  2  0
  6 13  1  0
 13 14  1  0
 14 15  1  0
 15 16  1  0
 16 17  1  0
 17 18  2  0
 18 19  1  0
 19 20  2  0
 20 21  1  0
 21 22  2  0
 13 23  2  0
 23  2  1  0
 12  7  1  0
 22 17  1  0
M  END
>  <zinc_id>  (328) 
ZINC000013472726

>  <ortholog_name>  (328) 
DRTS_PLAFK

>  <gene_name>  (328) 
DRTS_PLAFK

>  <affinity>  (328) 
9.30

>  <chembldocid>  (328) 
16871

>  <title>  (328) 
None

>  <reference.pubmed_id>  (328) 
11881993

>  <reference.doi>  (328) 
None

>  <reference.chembl_id>  (328) 
CHEMBL1135602

>  <reference.journal>  (328) 
J. Med. Chem.

>  <reference.year>  (328) 
2002

$$$$

     RDKit          3D

 23 25  0  0  0  0  0  0  0  0999 V2000
   -0.5444   -4.6996    0.5819 N   0  0  0  0  0  0  0  0  0  0  0  0
   -0.9152   -3.3231    0.4860 C   0  0  0  0  0  0  0  0  0  0  0  0
   -1.6464   -2.7326    1.4549 N   0  0  0  0  0  0  0  0  0  0  0  0
   -2.0092   -1.4397    1.3909 C   0  0  0  0  0  0  0  0  0  0  0  0
   -2.7788   -0.8204    2.4129 N   0  0  0  0  0  0  0  0  0  0  0  0
   -1.6412   -0.6556    0.3144 C   0  0  0  0  0  0  0  0  0  0  0  0
   -1.9998    0.7474    0.1840 C   0  0  0  0  0  0  0  0  0  0  0  0
   -3.2668    1.1014   -0.2716 C   0  0  0  0  0  0  0  0  0  0  0  0
   -3.6879    2.3918   -0.4246 C   0  0  0  0  0  0  0  0  0  0  0  0
   -2.8261    3.4241   -0.1166 C   0  0  0  0  0  0  0  0  0  0  0  0
   -1.5597    3.1204    0.3384 C   0  0  0  0  0  0  0  0  0  0  0  0
   -1.1544    1.7877    0.4859 C   0  0  0  0  0  0  0  0  0  0  0  0
   -0.8952   -1.2611   -0.6723 C   0  0  0  0  0  0  0  0  0  0  0  0
   -0.4878   -0.4274   -1.8421 C   0  0  0  0  0  0  0  0  0  0  0  0
    0.6613    0.4452   -1.3155 C   0  0  0  0  0  0  0  0  0  0  0  0
    1.7278   -0.5529   -0.8626 C   0  0  0  0  0  0  0  0  0  0  0  0
    2.8774    0.2071   -0.3349 C   0  0  0  0  0  0  0  0  0  0  0  0
    3.9098    0.5933   -1.1507 C   0  0  0  0  0  0  0  0  0  0  0  0
    4.9715    1.2955   -0.6561 C   0  0  0  0  0  0  0  0  0  0  0  0
    4.9703    1.6042    0.6982 C   0  0  0  0  0  0  0  0  0  0  0  0
    3.9468    1.2257    1.5266 C   0  0  0  0  0  0  0  0  0  0  0  0
    2.9048    0.5275    1.0018 C   0  0  0  0  0  0  0  0  0  0  0  0
   -0.5569   -2.5591   -0.5624 N   0  0  0  0  0  0  0  0  0  0  0  0
  1  2  1  0
  2  3  2  0
  3  4  1  0
  4  5  1  0
  4  6  2  0
  6  7  1  0
  7  8  2  0
  8  9  1  0
  9 10  2  0
 10 11  1  0
 11 12  2  0
  6 13  1  0
 13 14  1  0
 14 15  1  0
 15 16  1  0
 16 17  1  0
 17 18  2  0
 18 19  1  0
 19 20  2  0
 20 21  1  0
 21 22  2  0
 13 23  2  0
 23  2  1  0
 12  7  1  0
 22 17  1  0
M  END
>  <zinc_id>  (329) 
ZINC000013472726

>  <ortholog_name>  (329) 
DRTS_PLAFK

>  <gene_name>  (329) 
DRTS_PLAFK

>  <affinity>  (329) 
9.30

>  <chembldocid>  (329) 
17662

>  <title>  (329) 
None

>  <reference.pubmed_id>  (329) 
14736247

>  <reference.doi>  (329) 
None

>  <reference.chembl_id>  (329) 
CHEMBL1138835

>  <reference.journal>  (329) 
J. Med. Chem.

>  <reference.year>  (329) 
2004

$$$$

     RDKit          3D

 23 25  0  0  0  0  0  0  0  0999 V2000
   -0.5444   -4.6996    0.5819 N   0  0  0  0  0  0  0  0  0  0  0  0
   -0.9152   -3.3231    0.4860 C   0  0  0  0  0  0  0  0  0  0  0  0
   -1.6464   -2.7326    1.4549 N   0  0  0  0  0  0  0  0  0  0  0  0
   -2.0092   -1.4397    1.3909 C   0  0  0  0  0  0  0  0  0  0  0  0
   -2.7788   -0.8204    2.4129 N   0  0  0  0  0  0  0  0  0  0  0  0
   -1.6412   -0.6556    0.3144 C   0  0  0  0  0  0  0  0  0  0  0  0
   -1.9998    0.7474    0.1840 C   0  0  0  0  0  0  0  0  0  0  0  0
   -3.2668    1.1014   -0.2716 C   0  0  0  0  0  0  0  0  0  0  0  0
   -3.6879    2.3918   -0.4246 C   0  0  0  0  0  0  0  0  0  0  0  0
   -2.8261    3.4241   -0.1166 C   0  0  0  0  0  0  0  0  0  0  0  0
   -1.5597    3.1204    0.3384 C   0  0  0  0  0  0  0  0  0  0  0  0
   -1.1544    1.7877    0.4859 C   0  0  0  0  0  0  0  0  0  0  0  0
   -0.8952   -1.2611   -0.6723 C   0  0  0  0  0  0  0  0  0  0  0  0
   -0.4878   -0.4274   -1.8421 C   0  0  0  0  0  0  0  0  0  0  0  0
    0.6613    0.4452   -1.3155 C   0  0  0  0  0  0  0  0  0  0  0  0
    1.7278   -0.5529   -0.8626 C   0  0  0  0  0  0  0  0  0  0  0  0
    2.8774    0.2071   -0.3349 C   0  0  0  0  0  0  0  0  0  0  0  0
    3.9098    0.5933   -1.1507 C   0  0  0  0  0  0  0  0  0  0  0  0
    4.9715    1.2955   -0.6561 C   0  0  0  0  0  0  0  0  0  0  0  0
    4.9703    1.6042    0.6982 C   0  0  0  0  0  0  0  0  0  0  0  0
    3.9468    1.2257    1.5266 C   0  0  0  0  0  0  0  0  0  0  0  0
    2.9048    0.5275    1.0018 C   0  0  0  0  0  0  0  0  0  0  0  0
   -0.5569   -2.5591   -0.5624 N   0  0  0  0  0  0  0  0  0  0  0  0
  1  2  1  0
  2  3  2  0
  3  4  1  0
  4  5  1  0
  4  6  2  0
  6  7  1  0
  7  8  2  0
  8  9  1  0
  9 10  2  0
 10 11  1  0
 11 12  2  0
  6 13  1  0
 13 14  1  0
 14 15  1  0
 15 16  1  0
 16 17  1  0
 17 18  2  0
 18 19  1  0
 19 20  2  0
 20 21  1  0
 21 22  2  0
 13 23  2  0
 23  2  1  0
 12  7  1  0
 22 17  1  0
M  END
>  <zinc_id>  (330) 
ZINC000013472726

>  <ortholog_name>  (330) 
DRTS_PLAFK

>  <gene_name>  (330) 
DRTS_PLAFK

>  <affinity>  (330) 
9.05

>  <chembldocid>  (330) 
16871

>  <title>  (330) 
None

>  <reference.pubmed_id>  (330) 
11881993

>  <reference.doi>  (330) 
None

>  <reference.chembl_id>  (330) 
CHEMBL1135602

>  <reference.journal>  (330) 
J. Med. Chem.

>  <reference.year>  (330) 
2002

$$$$

     RDKit          3D

 23 25  0  0  0  0  0  0  0  0999 V2000
   -0.5444   -4.6996    0.5819 N   0  0  0  0  0  0  0  0  0  0  0  0
   -0.9152   -3.3231    0.4860 C   0  0  0  0  0  0  0  0  0  0  0  0
   -1.6464   -2.7326    1.4549 N   0  0  0  0  0  0  0  0  0  0  0  0
   -2.0092   -1.4397    1.3909 C   0  0  0  0  0  0  0  0  0  0  0  0
   -2.7788   -0.8204    2.4129 N   0  0  0  0  0  0  0  0  0  0  0  0
   -1.6412   -0.6556    0.3144 C   0  0  0  0  0  0  0  0  0  0  0  0
   -1.9998    0.7474    0.1840 C   0  0  0  0  0  0  0  0  0  0  0  0
   -3.2668    1.1014   -0.2716 C   0  0  0  0  0  0  0  0  0  0  0  0
   -3.6879    2.3918   -0.4246 C   0  0  0  0  0  0  0  0  0  0  0  0
   -2.8261    3.4241   -0.1166 C   0  0  0  0  0  0  0  0  0  0  0  0
   -1.5597    3.1204    0.3384 C   0  0  0  0  0  0  0  0  0  0  0  0
   -1.1544    1.7877    0.4859 C   0  0  0  0  0  0  0  0  0  0  0  0
   -0.8952   -1.2611   -0.6723 C   0  0  0  0  0  0  0  0  0  0  0  0
   -0.4878   -0.4274   -1.8421 C   0  0  0  0  0  0  0  0  0  0  0  0
    0.6613    0.4452   -1.3155 C   0  0  0  0  0  0  0  0  0  0  0  0
    1.7278   -0.5529   -0.8626 C   0  0  0  0  0  0  0  0  0  0  0  0
    2.8774    0.2071   -0.3349 C   0  0  0  0  0  0  0  0  0  0  0  0
    3.9098    0.5933   -1.1507 C   0  0  0  0  0  0  0  0  0  0  0  0
    4.9715    1.2955   -0.6561 C   0  0  0  0  0  0  0  0  0  0  0  0
    4.9703    1.6042    0.6982 C   0  0  0  0  0  0  0  0  0  0  0  0
    3.9468    1.2257    1.5266 C   0  0  0  0  0  0  0  0  0  0  0  0
    2.9048    0.5275    1.0018 C   0  0  0  0  0  0  0  0  0  0  0  0
   -0.5569   -2.5591   -0.5624 N   0  0  0  0  0  0  0  0  0  0  0  0
  1  2  1  0
  2  3  2  0
  3  4  1  0
  4  5  1  0
  4  6  2  0
  6  7  1  0
  7  8  2  0
  8  9  1  0
  9 10  2  0
 10 11  1  0
 11 12  2  0
  6 13  1  0
 13 14  1  0
 14 15  1  0
 15 16  1  0
 16 17  1  0
 17 18  2  0
 18 19  1  0
 19 20  2  0
 20 21  1  0
 21 22  2  0
 13 23  2  0
 23  2  1  0
 12  7  1  0
 22 17  1  0
M  END
>  <zinc_id>  (331) 
ZINC000013472726

>  <ortholog_name>  (331) 
DRTS_PLAFK

>  <gene_name>  (331) 
DRTS_PLAFK

>  <affinity>  (331) 
8.96

>  <chembldocid>  (331) 
17662

>  <title>  (331) 
None

>  <reference.pubmed_id>  (331) 
14736247

>  <reference.doi>  (331) 
None

>  <reference.chembl_id>  (331) 
CHEMBL1138835

>  <reference.journal>  (331) 
J. Med. Chem.

>  <reference.year>  (331) 
2004

$$$$

     RDKit          3D

 23 25  0  0  0  0  0  0  0  0999 V2000
   -0.5444   -4.6996    0.5819 N   0  0  0  0  0  0  0  0  0  0  0  0
   -0.9152   -3.3231    0.4860 C   0  0  0  0  0  0  0  0  0  0  0  0
   -1.6464   -2.7326    1.4549 N   0  0  0  0  0  0  0  0  0  0  0  0
   -2.0092   -1.4397    1.3909 C   0  0  0  0  0  0  0  0  0  0  0  0
   -2.7788   -0.8204    2.4129 N   0  0  0  0  0  0  0  0  0  0  0  0
   -1.6412   -0.6556    0.3144 C   0  0  0  0  0  0  0  0  0  0  0  0
   -1.9998    0.7474    0.1840 C   0  0  0  0  0  0  0  0  0  0  0  0
   -3.2668    1.1014   -0.2716 C   0  0  0  0  0  0  0  0  0  0  0  0
   -3.6879    2.3918   -0.4246 C   0  0  0  0  0  0  0  0  0  0  0  0
   -2.8261    3.4241   -0.1166 C   0  0  0  0  0  0  0  0  0  0  0  0
   -1.5597    3.1204    0.3384 C   0  0  0  0  0  0  0  0  0  0  0  0
   -1.1544    1.7877    0.4859 C   0  0  0  0  0  0  0  0  0  0  0  0
   -0.8952   -1.2611   -0.6723 C   0  0  0  0  0  0  0  0  0  0  0  0
   -0.4878   -0.4274   -1.8421 C   0  0  0  0  0  0  0  0  0  0  0  0
    0.6613    0.4452   -1.3155 C   0  0  0  0  0  0  0  0  0  0  0  0
    1.7278   -0.5529   -0.8626 C   0  0  0  0  0  0  0  0  0  0  0  0
    2.8774    0.2071   -0.3349 C   0  0  0  0  0  0  0  0  0  0  0  0
    3.9098    0.5933   -1.1507 C   0  0  0  0  0  0  0  0  0  0  0  0
    4.9715    1.2955   -0.6561 C   0  0  0  0  0  0  0  0  0  0  0  0
    4.9703    1.6042    0.6982 C   0  0  0  0  0  0  0  0  0  0  0  0
    3.9468    1.2257    1.5266 C   0  0  0  0  0  0  0  0  0  0  0  0
    2.9048    0.5275    1.0018 C   0  0  0  0  0  0  0  0  0  0  0  0
   -0.5569   -2.5591   -0.5624 N   0  0  0  0  0  0  0  0  0  0  0  0
  1  2  1  0
  2  3  2  0
  3  4  1  0
  4  5  1  0
  4  6  2  0
  6  7  1  0
  7  8  2  0
  8  9  1  0
  9 10  2  0
 10 11  1  0
 11 12  2  0
  6 13  1  0
 13 14  1  0
 14 15  1  0
 15 16  1  0
 16 17  1  0
 17 18  2  0
 18 19  1  0
 19 20  2  0
 20 21  1  0
 21 22  2  0
 13 23  2  0
 23  2  1  0
 12  7  1  0
 22 17  1  0
M  END
>  <zinc_id>  (332) 
ZINC000013472726

>  <ortholog_name>  (332) 
DRTS_PLAFK

>  <gene_name>  (332) 
DRTS_PLAFK

>  <affinity>  (332) 
8.72

>  <chembldocid>  (332) 
17662

>  <title>  (332) 
None

>  <reference.pubmed_id>  (332) 
14736247

>  <reference.doi>  (332) 
None

>  <reference.chembl_id>  (332) 
CHEMBL1138835

>  <reference.journal>  (332) 
J. Med. Chem.

>  <reference.year>  (332) 
2004

$$$$

     RDKit          3D

 23 25  0  0  0  0  0  0  0  0999 V2000
   -0.5444   -4.6996    0.5819 N   0  0  0  0  0  0  0  0  0  0  0  0
   -0.9152   -3.3231    0.4860 C   0  0  0  0  0  0  0  0  0  0  0  0
   -1.6464   -2.7326    1.4549 N   0  0  0  0  0  0  0  0  0  0  0  0
   -2.0092   -1.4397    1.3909 C   0  0  0  0  0  0  0  0  0  0  0  0
   -2.7788   -0.8204    2.4129 N   0  0  0  0  0  0  0  0  0  0  0  0
   -1.6412   -0.6556    0.3144 C   0  0  0  0  0  0  0  0  0  0  0  0
   -1.9998    0.7474    0.1840 C   0  0  0  0  0  0  0  0  0  0  0  0
   -3.2668    1.1014   -0.2716 C   0  0  0  0  0  0  0  0  0  0  0  0
   -3.6879    2.3918   -0.4246 C   0  0  0  0  0  0  0  0  0  0  0  0
   -2.8261    3.4241   -0.1166 C   0  0  0  0  0  0  0  0  0  0  0  0
   -1.5597    3.1204    0.3384 C   0  0  0  0  0  0  0  0  0  0  0  0
   -1.1544    1.7877    0.4859 C   0  0  0  0  0  0  0  0  0  0  0  0
   -0.8952   -1.2611   -0.6723 C   0  0  0  0  0  0  0  0  0  0  0  0
   -0.4878   -0.4274   -1.8421 C   0  0  0  0  0  0  0  0  0  0  0  0
    0.6613    0.4452   -1.3155 C   0  0  0  0  0  0  0  0  0  0  0  0
    1.7278   -0.5529   -0.8626 C   0  0  0  0  0  0  0  0  0  0  0  0
    2.8774    0.2071   -0.3349 C   0  0  0  0  0  0  0  0  0  0  0  0
    3.9098    0.5933   -1.1507 C   0  0  0  0  0  0  0  0  0  0  0  0
    4.9715    1.2955   -0.6561 C   0  0  0  0  0  0  0  0  0  0  0  0
    4.9703    1.6042    0.6982 C   0  0  0  0  0  0  0  0  0  0  0  0
    3.9468    1.2257    1.5266 C   0  0  0  0  0  0  0  0  0  0  0  0
    2.9048    0.5275    1.0018 C   0  0  0  0  0  0  0  0  0  0  0  0
   -0.5569   -2.5591   -0.5624 N   0  0  0  0  0  0  0  0  0  0  0  0
  1  2  1  0
  2  3  2  0
  3  4  1  0
  4  5  1  0
  4  6  2  0
  6  7  1  0
  7  8  2  0
  8  9  1  0
  9 10  2  0
 10 11  1  0
 11 12  2  0
  6 13  1  0
 13 14  1  0
 14 15  1  0
 15 16  1  0
 16 17  1  0
 17 18  2  0
 18 19  1  0
 19 20  2  0
 20 21  1  0
 21 22  2  0
 13 23  2  0
 23  2  1  0
 12  7  1  0
 22 17  1  0
M  END
>  <zinc_id>  (333) 
ZINC000013472726

>  <ortholog_name>  (333) 
DRTS_PLAFK

>  <gene_name>  (333) 
DRTS_PLAFK

>  <affinity>  (333) 
8.62

>  <chembldocid>  (333) 
16871

>  <title>  (333) 
None

>  <reference.pubmed_id>  (333) 
11881993

>  <reference.doi>  (333) 
None

>  <reference.chembl_id>  (333) 
CHEMBL1135602

>  <reference.journal>  (333) 
J. Med. Chem.

>  <reference.year>  (333) 
2002

$$$$

     RDKit          3D

 23 25  0  0  0  0  0  0  0  0999 V2000
   -0.5444   -4.6996    0.5819 N   0  0  0  0  0  0  0  0  0  0  0  0
   -0.9152   -3.3231    0.4860 C   0  0  0  0  0  0  0  0  0  0  0  0
   -1.6464   -2.7326    1.4549 N   0  0  0  0  0  0  0  0  0  0  0  0
   -2.0092   -1.4397    1.3909 C   0  0  0  0  0  0  0  0  0  0  0  0
   -2.7788   -0.8204    2.4129 N   0  0  0  0  0  0  0  0  0  0  0  0
   -1.6412   -0.6556    0.3144 C   0  0  0  0  0  0  0  0  0  0  0  0
   -1.9998    0.7474    0.1840 C   0  0  0  0  0  0  0  0  0  0  0  0
   -3.2668    1.1014   -0.2716 C   0  0  0  0  0  0  0  0  0  0  0  0
   -3.6879    2.3918   -0.4246 C   0  0  0  0  0  0  0  0  0  0  0  0
   -2.8261    3.4241   -0.1166 C   0  0  0  0  0  0  0  0  0  0  0  0
   -1.5597    3.1204    0.3384 C   0  0  0  0  0  0  0  0  0  0  0  0
   -1.1544    1.7877    0.4859 C   0  0  0  0  0  0  0  0  0  0  0  0
   -0.8952   -1.2611   -0.6723 C   0  0  0  0  0  0  0  0  0  0  0  0
   -0.4878   -0.4274   -1.8421 C   0  0  0  0  0  0  0  0  0  0  0  0
    0.6613    0.4452   -1.3155 C   0  0  0  0  0  0  0  0  0  0  0  0
    1.7278   -0.5529   -0.8626 C   0  0  0  0  0  0  0  0  0  0  0  0
    2.8774    0.2071   -0.3349 C   0  0  0  0  0  0  0  0  0  0  0  0
    3.9098    0.5933   -1.1507 C   0  0  0  0  0  0  0  0  0  0  0  0
    4.9715    1.2955   -0.6561 C   0  0  0  0  0  0  0  0  0  0  0  0
    4.9703    1.6042    0.6982 C   0  0  0  0  0  0  0  0  0  0  0  0
    3.9468    1.2257    1.5266 C   0  0  0  0  0  0  0  0  0  0  0  0
    2.9048    0.5275    1.0018 C   0  0  0  0  0  0  0  0  0  0  0  0
   -0.5569   -2.5591   -0.5624 N   0  0  0  0  0  0  0  0  0  0  0  0
  1  2  1  0
  2  3  2  0
  3  4  1  0
  4  5  1  0
  4  6  2  0
  6  7  1  0
  7  8  2  0
  8  9  1  0
  9 10  2  0
 10 11  1  0
 11 12  2  0
  6 13  1  0
 13 14  1  0
 14 15  1  0
 15 16  1  0
 16 17  1  0
 17 18  2  0
 18 19  1  0
 19 20  2  0
 20 21  1  0
 21 22  2  0
 13 23  2  0
 23  2  1  0
 12  7  1  0
 22 17  1  0
M  END
>  <zinc_id>  (334) 
ZINC000013472726

>  <ortholog_name>  (334) 
DRTS_PLAFK

>  <gene_name>  (334) 
DRTS_PLAFK

>  <affinity>  (334) 
6.68

>  <chembldocid>  (334) 
17662

>  <title>  (334) 
None

>  <reference.pubmed_id>  (334) 
14736247

>  <reference.doi>  (334) 
None

>  <reference.chembl_id>  (334) 
CHEMBL1138835

>  <reference.journal>  (334) 
J. Med. Chem.

>  <reference.year>  (334) 
2004

$$$$

     RDKit          3D

 23 25  0  0  0  0  0  0  0  0999 V2000
   -0.5444   -4.6996    0.5819 N   0  0  0  0  0  0  0  0  0  0  0  0
   -0.9152   -3.3231    0.4860 C   0  0  0  0  0  0  0  0  0  0  0  0
   -1.6464   -2.7326    1.4549 N   0  0  0  0  0  0  0  0  0  0  0  0
   -2.0092   -1.4397    1.3909 C   0  0  0  0  0  0  0  0  0  0  0  0
   -2.7788   -0.8204    2.4129 N   0  0  0  0  0  0  0  0  0  0  0  0
   -1.6412   -0.6556    0.3144 C   0  0  0  0  0  0  0  0  0  0  0  0
   -1.9998    0.7474    0.1840 C   0  0  0  0  0  0  0  0  0  0  0  0
   -3.2668    1.1014   -0.2716 C   0  0  0  0  0  0  0  0  0  0  0  0
   -3.6879    2.3918   -0.4246 C   0  0  0  0  0  0  0  0  0  0  0  0
   -2.8261    3.4241   -0.1166 C   0  0  0  0  0  0  0  0  0  0  0  0
   -1.5597    3.1204    0.3384 C   0  0  0  0  0  0  0  0  0  0  0  0
   -1.1544    1.7877    0.4859 C   0  0  0  0  0  0  0  0  0  0  0  0
   -0.8952   -1.2611   -0.6723 C   0  0  0  0  0  0  0  0  0  0  0  0
   -0.4878   -0.4274   -1.8421 C   0  0  0  0  0  0  0  0  0  0  0  0
    0.6613    0.4452   -1.3155 C   0  0  0  0  0  0  0  0  0  0  0  0
    1.7278   -0.5529   -0.8626 C   0  0  0  0  0  0  0  0  0  0  0  0
    2.8774    0.2071   -0.3349 C   0  0  0  0  0  0  0  0  0  0  0  0
    3.9098    0.5933   -1.1507 C   0  0  0  0  0  0  0  0  0  0  0  0
    4.9715    1.2955   -0.6561 C   0  0  0  0  0  0  0  0  0  0  0  0
    4.9703    1.6042    0.6982 C   0  0  0  0  0  0  0  0  0  0  0  0
    3.9468    1.2257    1.5266 C   0  0  0  0  0  0  0  0  0  0  0  0
    2.9048    0.5275    1.0018 C   0  0  0  0  0  0  0  0  0  0  0  0
   -0.5569   -2.5591   -0.5624 N   0  0  0  0  0  0  0  0  0  0  0  0
  1  2  1  0
  2  3  2  0
  3  4  1  0
  4  5  1  0
  4  6  2  0
  6  7  1  0
  7  8  2  0
  8  9  1  0
  9 10  2  0
 10 11  1  0
 11 12  2  0
  6 13  1  0
 13 14  1  0
 14 15  1  0
 15 16  1  0
 16 17  1  0
 17 18  2  0
 18 19  1  0
 19 20  2  0
 20 21  1  0
 21 22  2  0
 13 23  2  0
 23  2  1  0
 12  7  1  0
 22 17  1  0
M  END
>  <zinc_id>  (335) 
ZINC000013472726

>  <ortholog_name>  (335) 
DRTS_PLAFK

>  <gene_name>  (335) 
DRTS_PLAFK

>  <affinity>  (335) 
5.64

>  <chembldocid>  (335) 
16871

>  <title>  (335) 
None

>  <reference.pubmed_id>  (335) 
11881993

>  <reference.doi>  (335) 
None

>  <reference.chembl_id>  (335) 
CHEMBL1135602

>  <reference.journal>  (335) 
J. Med. Chem.

>  <reference.year>  (335) 
2002

$$$$

     RDKit          3D

 23 25  0  0  0  0  0  0  0  0999 V2000
   -0.5444   -4.6996    0.5819 N   0  0  0  0  0  0  0  0  0  0  0  0
   -0.9152   -3.3231    0.4860 C   0  0  0  0  0  0  0  0  0  0  0  0
   -1.6464   -2.7326    1.4549 N   0  0  0  0  0  0  0  0  0  0  0  0
   -2.0092   -1.4397    1.3909 C   0  0  0  0  0  0  0  0  0  0  0  0
   -2.7788   -0.8204    2.4129 N   0  0  0  0  0  0  0  0  0  0  0  0
   -1.6412   -0.6556    0.3144 C   0  0  0  0  0  0  0  0  0  0  0  0
   -1.9998    0.7474    0.1840 C   0  0  0  0  0  0  0  0  0  0  0  0
   -3.2668    1.1014   -0.2716 C   0  0  0  0  0  0  0  0  0  0  0  0
   -3.6879    2.3918   -0.4246 C   0  0  0  0  0  0  0  0  0  0  0  0
   -2.8261    3.4241   -0.1166 C   0  0  0  0  0  0  0  0  0  0  0  0
   -1.5597    3.1204    0.3384 C   0  0  0  0  0  0  0  0  0  0  0  0
   -1.1544    1.7877    0.4859 C   0  0  0  0  0  0  0  0  0  0  0  0
   -0.8952   -1.2611   -0.6723 C   0  0  0  0  0  0  0  0  0  0  0  0
   -0.4878   -0.4274   -1.8421 C   0  0  0  0  0  0  0  0  0  0  0  0
    0.6613    0.4452   -1.3155 C   0  0  0  0  0  0  0  0  0  0  0  0
    1.7278   -0.5529   -0.8626 C   0  0  0  0  0  0  0  0  0  0  0  0
    2.8774    0.2071   -0.3349 C   0  0  0  0  0  0  0  0  0  0  0  0
    3.9098    0.5933   -1.1507 C   0  0  0  0  0  0  0  0  0  0  0  0
    4.9715    1.2955   -0.6561 C   0  0  0  0  0  0  0  0  0  0  0  0
    4.9703    1.6042    0.6982 C   0  0  0  0  0  0  0  0  0  0  0  0
    3.9468    1.2257    1.5266 C   0  0  0  0  0  0  0  0  0  0  0  0
    2.9048    0.5275    1.0018 C   0  0  0  0  0  0  0  0  0  0  0  0
   -0.5569   -2.5591   -0.5624 N   0  0  0  0  0  0  0  0  0  0  0  0
  1  2  1  0
  2  3  2  0
  3  4  1  0
  4  5  1  0
  4  6  2  0
  6  7  1  0
  7  8  2  0
  8  9  1  0
  9 10  2  0
 10 11  1  0
 11 12  2  0
  6 13  1  0
 13 14  1  0
 14 15  1  0
 15 16  1  0
 16 17  1  0
 17 18  2  0
 18 19  1  0
 19 20  2  0
 20 21  1  0
 21 22  2  0
 13 23  2  0
 23  2  1  0
 12  7  1  0
 22 17  1  0
M  END
>  <zinc_id>  (336) 
ZINC000013472726

>  <ortholog_name>  (336) 
DRTS_PLAFK

>  <gene_name>  (336) 
DRTS_PLAFK

>  <affinity>  (336) 
5.57

>  <chembldocid>  (336) 
17662

>  <title>  (336) 
None

>  <reference.pubmed_id>  (336) 
14736247

>  <reference.doi>  (336) 
None

>  <reference.chembl_id>  (336) 
CHEMBL1138835

>  <reference.journal>  (336) 
J. Med. Chem.

>  <reference.year>  (336) 
2004

$$$$

     RDKit          3D

 23 25  0  0  0  0  0  0  0  0999 V2000
   -0.5444   -4.6996    0.5819 N   0  0  0  0  0  0  0  0  0  0  0  0
   -0.9152   -3.3231    0.4860 C   0  0  0  0  0  0  0  0  0  0  0  0
   -1.6464   -2.7326    1.4549 N   0  0  0  0  0  0  0  0  0  0  0  0
   -2.0092   -1.4397    1.3909 C   0  0  0  0  0  0  0  0  0  0  0  0
   -2.7788   -0.8204    2.4129 N   0  0  0  0  0  0  0  0  0  0  0  0
   -1.6412   -0.6556    0.3144 C   0  0  0  0  0  0  0  0  0  0  0  0
   -1.9998    0.7474    0.1840 C   0  0  0  0  0  0  0  0  0  0  0  0
   -3.2668    1.1014   -0.2716 C   0  0  0  0  0  0  0  0  0  0  0  0
   -3.6879    2.3918   -0.4246 C   0  0  0  0  0  0  0  0  0  0  0  0
   -2.8261    3.4241   -0.1166 C   0  0  0  0  0  0  0  0  0  0  0  0
   -1.5597    3.1204    0.3384 C   0  0  0  0  0  0  0  0  0  0  0  0
   -1.1544    1.7877    0.4859 C   0  0  0  0  0  0  0  0  0  0  0  0
   -0.8952   -1.2611   -0.6723 C   0  0  0  0  0  0  0  0  0  0  0  0
   -0.4878   -0.4274   -1.8421 C   0  0  0  0  0  0  0  0  0  0  0  0
    0.6613    0.4452   -1.3155 C   0  0  0  0  0  0  0  0  0  0  0  0
    1.7278   -0.5529   -0.8626 C   0  0  0  0  0  0  0  0  0  0  0  0
    2.8774    0.2071   -0.3349 C   0  0  0  0  0  0  0  0  0  0  0  0
    3.9098    0.5933   -1.1507 C   0  0  0  0  0  0  0  0  0  0  0  0
    4.9715    1.2955   -0.6561 C   0  0  0  0  0  0  0  0  0  0  0  0
    4.9703    1.6042    0.6982 C   0  0  0  0  0  0  0  0  0  0  0  0
    3.9468    1.2257    1.5266 C   0  0  0  0  0  0  0  0  0  0  0  0
    2.9048    0.5275    1.0018 C   0  0  0  0  0  0  0  0  0  0  0  0
   -0.5569   -2.5591   -0.5624 N   0  0  0  0  0  0  0  0  0  0  0  0
  1  2  1  0
  2  3  2  0
  3  4  1  0
  4  5  1  0
  4  6  2  0
  6  7  1  0
  7  8  2  0
  8  9  1  0
  9 10  2  0
 10 11  1  0
 11 12  2  0
  6 13  1  0
 13 14  1  0
 14 15  1  0
 15 16  1  0
 16 17  1  0
 17 18  2  0
 18 19  1  0
 19 20  2  0
 20 21  1  0
 21 22  2  0
 13 23  2  0
 23  2  1  0
 12  7  1  0
 22 17  1  0
M  END
>  <zinc_id>  (337) 
ZINC000013472726

>  <ortholog_name>  (337) 
DRTS_PLAFK

>  <gene_name>  (337) 
DRTS_PLAFK

>  <affinity>  (337) 
8.33

>  <chembldocid>  (337) 
17662

>  <title>  (337) 
None

>  <reference.pubmed_id>  (337) 
14736247

>  <reference.doi>  (337) 
None

>  <reference.chembl_id>  (337) 
CHEMBL1138835

>  <reference.journal>  (337) 
J. Med. Chem.

>  <reference.year>  (337) 
2004

$$$$

     RDKit          3D

 23 25  0  0  0  0  0  0  0  0999 V2000
   -0.5444   -4.6996    0.5819 N   0  0  0  0  0  0  0  0  0  0  0  0
   -0.9152   -3.3231    0.4860 C   0  0  0  0  0  0  0  0  0  0  0  0
   -1.6464   -2.7326    1.4549 N   0  0  0  0  0  0  0  0  0  0  0  0
   -2.0092   -1.4397    1.3909 C   0  0  0  0  0  0  0  0  0  0  0  0
   -2.7788   -0.8204    2.4129 N   0  0  0  0  0  0  0  0  0  0  0  0
   -1.6412   -0.6556    0.3144 C   0  0  0  0  0  0  0  0  0  0  0  0
   -1.9998    0.7474    0.1840 C   0  0  0  0  0  0  0  0  0  0  0  0
   -3.2668    1.1014   -0.2716 C   0  0  0  0  0  0  0  0  0  0  0  0
   -3.6879    2.3918   -0.4246 C   0  0  0  0  0  0  0  0  0  0  0  0
   -2.8261    3.4241   -0.1166 C   0  0  0  0  0  0  0  0  0  0  0  0
   -1.5597    3.1204    0.3384 C   0  0  0  0  0  0  0  0  0  0  0  0
   -1.1544    1.7877    0.4859 C   0  0  0  0  0  0  0  0  0  0  0  0
   -0.8952   -1.2611   -0.6723 C   0  0  0  0  0  0  0  0  0  0  0  0
   -0.4878   -0.4274   -1.8421 C   0  0  0  0  0  0  0  0  0  0  0  0
    0.6613    0.4452   -1.3155 C   0  0  0  0  0  0  0  0  0  0  0  0
    1.7278   -0.5529   -0.8626 C   0  0  0  0  0  0  0  0  0  0  0  0
    2.8774    0.2071   -0.3349 C   0  0  0  0  0  0  0  0  0  0  0  0
    3.9098    0.5933   -1.1507 C   0  0  0  0  0  0  0  0  0  0  0  0
    4.9715    1.2955   -0.6561 C   0  0  0  0  0  0  0  0  0  0  0  0
    4.9703    1.6042    0.6982 C   0  0  0  0  0  0  0  0  0  0  0  0
    3.9468    1.2257    1.5266 C   0  0  0  0  0  0  0  0  0  0  0  0
    2.9048    0.5275    1.0018 C   0  0  0  0  0  0  0  0  0  0  0  0
   -0.5569   -2.5591   -0.5624 N   0  0  0  0  0  0  0  0  0  0  0  0
  1  2  1  0
  2  3  2  0
  3  4  1  0
  4  5  1  0
  4  6  2  0
  6  7  1  0
  7  8  2  0
  8  9  1  0
  9 10  2  0
 10 11  1  0
 11 12  2  0
  6 13  1  0
 13 14  1  0
 14 15  1  0
 15 16  1  0
 16 17  1  0
 17 18  2  0
 18 19  1  0
 19 20  2  0
 20 21  1  0
 21 22  2  0
 13 23  2  0
 23  2  1  0
 12  7  1  0
 22 17  1  0
M  END
>  <zinc_id>  (338) 
ZINC000013472726

>  <ortholog_name>  (338) 
DRTS_PLAFK

>  <gene_name>  (338) 
DRTS_PLAFK

>  <affinity>  (338) 
5.07

>  <chembldocid>  (338) 
17662

>  <title>  (338) 
None

>  <reference.pubmed_id>  (338) 
14736247

>  <reference.doi>  (338) 
None

>  <reference.chembl_id>  (338) 
CHEMBL1138835

>  <reference.journal>  (338) 
J. Med. Chem.

>  <reference.year>  (338) 
2004

$$$$

     RDKit          3D

 15 16  0  0  0  0  0  0  0  0999 V2000
   -4.7064    0.8314   -0.2001 N   0  0  0  0  0  0  0  0  0  0  0  0
   -3.3182    0.5637   -0.0710 C   0  0  0  0  0  0  0  0  0  0  0  0
   -2.7411    0.6727    1.1300 N   0  0  0  0  0  0  0  0  0  0  0  0
   -1.4316    0.4354    1.3312 C   0  0  0  0  0  0  0  0  0  0  0  0
   -0.6469    0.0632    0.2538 C   0  0  0  0  0  0  0  0  0  0  0  0
    0.7815   -0.2118    0.3888 C   0  0  0  0  0  0  0  0  0  0  0  0
    1.2320   -0.9863    1.4370 C   0  0  0  0  0  0  0  0  0  0  0  0
    2.5801   -1.2701    1.5997 C   0  0  0  0  0  0  0  0  0  0  0  0
    3.4988   -0.7732    0.7013 C   0  0  0  0  0  0  0  0  0  0  0  0
    3.0824    0.0049   -0.3585 C   0  0  0  0  0  0  0  0  0  0  0  0
    4.1734    0.6747   -1.5421 Cl  0  0  0  0  0  0  0  0  0  0  0  0
    1.7248    0.2714   -0.4942 C   0  0  0  0  0  0  0  0  0  0  0  0
   -1.2427   -0.0487   -0.9831 C   0  0  0  0  0  0  0  0  0  0  0  0
   -0.4310   -0.4303   -2.0805 N   0  0  0  0  0  0  0  0  0  0  0  0
   -2.5551    0.2030   -1.1123 N   0  0  0  0  0  0  0  0  0  0  0  0
  1  2  1  0
  2  3  2  0
  3  4  1  0
  4  5  2  0
  5  6  1  0
  6  7  2  0
  7  8  1  0
  8  9  2  0
  9 10  1  0
 10 11  1  0
 10 12  2  0
  5 13  1  0
 13 14  1  0
 13 15  2  0
 15  2  1  0
 12  6  1  0
M  END
>  <zinc_id>  (339) 
ZINC000013472727

>  <ortholog_name>  (339) 
DRTS_PLAFK

>  <gene_name>  (339) 
DRTS_PLAFK

>  <affinity>  (339) 
7.58

>  <chembldocid>  (339) 
16871

>  <title>  (339) 
None

>  <reference.pubmed_id>  (339) 
11881993

>  <reference.doi>  (339) 
None

>  <reference.chembl_id>  (339) 
CHEMBL1135602

>  <reference.journal>  (339) 
J. Med. Chem.

>  <reference.year>  (339) 
2002

$$$$

     RDKit          3D

 15 16  0  0  0  0  0  0  0  0999 V2000
   -4.7064    0.8314   -0.2001 N   0  0  0  0  0  0  0  0  0  0  0  0
   -3.3182    0.5637   -0.0710 C   0  0  0  0  0  0  0  0  0  0  0  0
   -2.7411    0.6727    1.1300 N   0  0  0  0  0  0  0  0  0  0  0  0
   -1.4316    0.4354    1.3312 C   0  0  0  0  0  0  0  0  0  0  0  0
   -0.6469    0.0632    0.2538 C   0  0  0  0  0  0  0  0  0  0  0  0
    0.7815   -0.2118    0.3888 C   0  0  0  0  0  0  0  0  0  0  0  0
    1.2320   -0.9863    1.4370 C   0  0  0  0  0  0  0  0  0  0  0  0
    2.5801   -1.2701    1.5997 C   0  0  0  0  0  0  0  0  0  0  0  0
    3.4988   -0.7732    0.7013 C   0  0  0  0  0  0  0  0  0  0  0  0
    3.0824    0.0049   -0.3585 C   0  0  0  0  0  0  0  0  0  0  0  0
    4.1734    0.6747   -1.5421 Cl  0  0  0  0  0  0  0  0  0  0  0  0
    1.7248    0.2714   -0.4942 C   0  0  0  0  0  0  0  0  0  0  0  0
   -1.2427   -0.0487   -0.9831 C   0  0  0  0  0  0  0  0  0  0  0  0
   -0.4310   -0.4303   -2.0805 N   0  0  0  0  0  0  0  0  0  0  0  0
   -2.5551    0.2030   -1.1123 N   0  0  0  0  0  0  0  0  0  0  0  0
  1  2  1  0
  2  3  2  0
  3  4  1  0
  4  5  2  0
  5  6  1  0
  6  7  2  0
  7  8  1  0
  8  9  2  0
  9 10  1  0
 10 11  1  0
 10 12  2  0
  5 13  1  0
 13 14  1  0
 13 15  2  0
 15  2  1  0
 12  6  1  0
M  END
>  <zinc_id>  (340) 
ZINC000013472727

>  <ortholog_name>  (340) 
DRTS_PLAFK

>  <gene_name>  (340) 
DRTS_PLAFK

>  <affinity>  (340) 
7.50

>  <chembldocid>  (340) 
16871

>  <title>  (340) 
None

>  <reference.pubmed_id>  (340) 
11881993

>  <reference.doi>  (340) 
None

>  <reference.chembl_id>  (340) 
CHEMBL1135602

>  <reference.journal>  (340) 
J. Med. Chem.

>  <reference.year>  (340) 
2002

$$$$

     RDKit          3D

 15 16  0  0  0  0  0  0  0  0999 V2000
   -4.7064    0.8314   -0.2001 N   0  0  0  0  0  0  0  0  0  0  0  0
   -3.3182    0.5637   -0.0710 C   0  0  0  0  0  0  0  0  0  0  0  0
   -2.7411    0.6727    1.1300 N   0  0  0  0  0  0  0  0  0  0  0  0
   -1.4316    0.4354    1.3312 C   0  0  0  0  0  0  0  0  0  0  0  0
   -0.6469    0.0632    0.2538 C   0  0  0  0  0  0  0  0  0  0  0  0
    0.7815   -0.2118    0.3888 C   0  0  0  0  0  0  0  0  0  0  0  0
    1.2320   -0.9863    1.4370 C   0  0  0  0  0  0  0  0  0  0  0  0
    2.5801   -1.2701    1.5997 C   0  0  0  0  0  0  0  0  0  0  0  0
    3.4988   -0.7732    0.7013 C   0  0  0  0  0  0  0  0  0  0  0  0
    3.0824    0.0049   -0.3585 C   0  0  0  0  0  0  0  0  0  0  0  0
    4.1734    0.6747   -1.5421 Cl  0  0  0  0  0  0  0  0  0  0  0  0
    1.7248    0.2714   -0.4942 C   0  0  0  0  0  0  0  0  0  0  0  0
   -1.2427   -0.0487   -0.9831 C   0  0  0  0  0  0  0  0  0  0  0  0
   -0.4310   -0.4303   -2.0805 N   0  0  0  0  0  0  0  0  0  0  0  0
   -2.5551    0.2030   -1.1123 N   0  0  0  0  0  0  0  0  0  0  0  0
  1  2  1  0
  2  3  2  0
  3  4  1  0
  4  5  2  0
  5  6  1  0
  6  7  2  0
  7  8  1  0
  8  9  2  0
  9 10  1  0
 10 11  1  0
 10 12  2  0
  5 13  1  0
 13 14  1  0
 13 15  2  0
 15  2  1  0
 12  6  1  0
M  END
>  <zinc_id>  (341) 
ZINC000013472727

>  <ortholog_name>  (341) 
DRTS_PLAFK

>  <gene_name>  (341) 
DRTS_PLAFK

>  <affinity>  (341) 
8.20

>  <chembldocid>  (341) 
16871

>  <title>  (341) 
None

>  <reference.pubmed_id>  (341) 
11881993

>  <reference.doi>  (341) 
None

>  <reference.chembl_id>  (341) 
CHEMBL1135602

>  <reference.journal>  (341) 
J. Med. Chem.

>  <reference.year>  (341) 
2002

$$$$

     RDKit          3D

 15 16  0  0  0  0  0  0  0  0999 V2000
   -4.7064    0.8314   -0.2001 N   0  0  0  0  0  0  0  0  0  0  0  0
   -3.3182    0.5637   -0.0710 C   0  0  0  0  0  0  0  0  0  0  0  0
   -2.7411    0.6727    1.1300 N   0  0  0  0  0  0  0  0  0  0  0  0
   -1.4316    0.4354    1.3312 C   0  0  0  0  0  0  0  0  0  0  0  0
   -0.6469    0.0632    0.2538 C   0  0  0  0  0  0  0  0  0  0  0  0
    0.7815   -0.2118    0.3888 C   0  0  0  0  0  0  0  0  0  0  0  0
    1.2320   -0.9863    1.4370 C   0  0  0  0  0  0  0  0  0  0  0  0
    2.5801   -1.2701    1.5997 C   0  0  0  0  0  0  0  0  0  0  0  0
    3.4988   -0.7732    0.7013 C   0  0  0  0  0  0  0  0  0  0  0  0
    3.0824    0.0049   -0.3585 C   0  0  0  0  0  0  0  0  0  0  0  0
    4.1734    0.6747   -1.5421 Cl  0  0  0  0  0  0  0  0  0  0  0  0
    1.7248    0.2714   -0.4942 C   0  0  0  0  0  0  0  0  0  0  0  0
   -1.2427   -0.0487   -0.9831 C   0  0  0  0  0  0  0  0  0  0  0  0
   -0.4310   -0.4303   -2.0805 N   0  0  0  0  0  0  0  0  0  0  0  0
   -2.5551    0.2030   -1.1123 N   0  0  0  0  0  0  0  0  0  0  0  0
  1  2  1  0
  2  3  2  0
  3  4  1  0
  4  5  2  0
  5  6  1  0
  6  7  2  0
  7  8  1  0
  8  9  2  0
  9 10  1  0
 10 11  1  0
 10 12  2  0
  5 13  1  0
 13 14  1  0
 13 15  2  0
 15  2  1  0
 12  6  1  0
M  END
>  <zinc_id>  (342) 
ZINC000013472727

>  <ortholog_name>  (342) 
DRTS_PLAFK

>  <gene_name>  (342) 
DRTS_PLAFK

>  <affinity>  (342) 
7.12

>  <chembldocid>  (342) 
21047

>  <title>  (342) 
None

>  <reference.pubmed_id>  (342) 
15293997

>  <reference.doi>  (342) 
None

>  <reference.chembl_id>  (342) 
CHEMBL1138679

>  <reference.journal>  (342) 
J. Med. Chem.

>  <reference.year>  (342) 
2004

$$$$

     RDKit          3D

 15 16  0  0  0  0  0  0  0  0999 V2000
   -4.7064    0.8314   -0.2001 N   0  0  0  0  0  0  0  0  0  0  0  0
   -3.3182    0.5637   -0.0710 C   0  0  0  0  0  0  0  0  0  0  0  0
   -2.7411    0.6727    1.1300 N   0  0  0  0  0  0  0  0  0  0  0  0
   -1.4316    0.4354    1.3312 C   0  0  0  0  0  0  0  0  0  0  0  0
   -0.6469    0.0632    0.2538 C   0  0  0  0  0  0  0  0  0  0  0  0
    0.7815   -0.2118    0.3888 C   0  0  0  0  0  0  0  0  0  0  0  0
    1.2320   -0.9863    1.4370 C   0  0  0  0  0  0  0  0  0  0  0  0
    2.5801   -1.2701    1.5997 C   0  0  0  0  0  0  0  0  0  0  0  0
    3.4988   -0.7732    0.7013 C   0  0  0  0  0  0  0  0  0  0  0  0
    3.0824    0.0049   -0.3585 C   0  0  0  0  0  0  0  0  0  0  0  0
    4.1734    0.6747   -1.5421 Cl  0  0  0  0  0  0  0  0  0  0  0  0
    1.7248    0.2714   -0.4942 C   0  0  0  0  0  0  0  0  0  0  0  0
   -1.2427   -0.0487   -0.9831 C   0  0  0  0  0  0  0  0  0  0  0  0
   -0.4310   -0.4303   -2.0805 N   0  0  0  0  0  0  0  0  0  0  0  0
   -2.5551    0.2030   -1.1123 N   0  0  0  0  0  0  0  0  0  0  0  0
  1  2  1  0
  2  3  2  0
  3  4  1  0
  4  5  2  0
  5  6  1  0
  6  7  2  0
  7  8  1  0
  8  9  2  0
  9 10  1  0
 10 11  1  0
 10 12  2  0
  5 13  1  0
 13 14  1  0
 13 15  2  0
 15  2  1  0
 12  6  1  0
M  END
>  <zinc_id>  (343) 
ZINC000013472727

>  <ortholog_name>  (343) 
DRTS_PLAFK

>  <gene_name>  (343) 
DRTS_PLAFK

>  <affinity>  (343) 
5.06

>  <chembldocid>  (343) 
16871

>  <title>  (343) 
None

>  <reference.pubmed_id>  (343) 
11881993

>  <reference.doi>  (343) 
None

>  <reference.chembl_id>  (343) 
CHEMBL1135602

>  <reference.journal>  (343) 
J. Med. Chem.

>  <reference.year>  (343) 
2002

$$$$

     RDKit          3D

 16 17  0  0  0  0  0  0  0  0999 V2000
    0.9804   -2.3196    0.8859 C   0  0  0  0  0  0  0  0  0  0  0  0
    1.4861   -0.9592    0.4990 C   0  0  0  0  0  0  0  0  0  0  0  0
    2.8309   -0.7251    0.4729 N   0  0  0  0  0  0  0  0  0  0  0  0
    3.2897    0.4952    0.1197 C   0  0  0  0  0  0  0  0  0  0  0  0
    4.6980    0.6906    0.1080 N   0  0  0  0  0  0  0  0  0  0  0  0
    2.4021    1.4367   -0.1933 N   0  0  0  0  0  0  0  0  0  0  0  0
    1.0888    1.2633   -0.1850 C   0  0  0  0  0  0  0  0  0  0  0  0
    0.2085    2.3045   -0.5259 N   0  0  0  0  0  0  0  0  0  0  0  0
    0.5784    0.0352    0.1686 C   0  0  0  0  0  0  0  0  0  0  0  0
   -0.8398   -0.2584    0.2278 C   0  0  0  0  0  0  0  0  0  0  0  0
   -1.4729   -1.1621   -0.6359 C   0  0  0  0  0  0  0  0  0  0  0  0
   -2.7949   -1.4288   -0.6161 C   0  0  0  0  0  0  0  0  0  0  0  0
   -3.5975   -0.7960    0.2895 C   0  0  0  0  0  0  0  0  0  0  0  0
   -3.0472    0.1241    1.1906 C   0  0  0  0  0  0  0  0  0  0  0  0
   -4.1201    0.9307    2.3273 Cl  0  0  0  0  0  0  0  0  0  0  0  0
   -1.6903    0.3687    1.1392 C   0  0  0  0  0  0  0  0  0  0  0  0
  1  2  1  0
  2  3  2  0
  3  4  1  0
  4  5  1  0
  4  6  2  0
  6  7  1  0
  7  8  1  0
  7  9  2  0
  9 10  1  0
 10 11  2  0
 11 12  1  0
 12 13  2  0
 13 14  1  0
 14 15  1  0
 14 16  2  0
  9  2  1  0
 16 10  1  0
M  END
>  <zinc_id>  (344) 
ZINC000013472728

>  <ortholog_name>  (344) 
DRTS_PLAFK

>  <gene_name>  (344) 
DRTS_PLAFK

>  <affinity>  (344) 
8.72

>  <chembldocid>  (344) 
16871

>  <title>  (344) 
None

>  <reference.pubmed_id>  (344) 
11881993

>  <reference.doi>  (344) 
None

>  <reference.chembl_id>  (344) 
CHEMBL1135602

>  <reference.journal>  (344) 
J. Med. Chem.

>  <reference.year>  (344) 
2002

$$$$

     RDKit          3D

 16 17  0  0  0  0  0  0  0  0999 V2000
    0.9804   -2.3196    0.8859 C   0  0  0  0  0  0  0  0  0  0  0  0
    1.4861   -0.9592    0.4990 C   0  0  0  0  0  0  0  0  0  0  0  0
    2.8309   -0.7251    0.4729 N   0  0  0  0  0  0  0  0  0  0  0  0
    3.2897    0.4952    0.1197 C   0  0  0  0  0  0  0  0  0  0  0  0
    4.6980    0.6906    0.1080 N   0  0  0  0  0  0  0  0  0  0  0  0
    2.4021    1.4367   -0.1933 N   0  0  0  0  0  0  0  0  0  0  0  0
    1.0888    1.2633   -0.1850 C   0  0  0  0  0  0  0  0  0  0  0  0
    0.2085    2.3045   -0.5259 N   0  0  0  0  0  0  0  0  0  0  0  0
    0.5784    0.0352    0.1686 C   0  0  0  0  0  0  0  0  0  0  0  0
   -0.8398   -0.2584    0.2278 C   0  0  0  0  0  0  0  0  0  0  0  0
   -1.4729   -1.1621   -0.6359 C   0  0  0  0  0  0  0  0  0  0  0  0
   -2.7949   -1.4288   -0.6161 C   0  0  0  0  0  0  0  0  0  0  0  0
   -3.5975   -0.7960    0.2895 C   0  0  0  0  0  0  0  0  0  0  0  0
   -3.0472    0.1241    1.1906 C   0  0  0  0  0  0  0  0  0  0  0  0
   -4.1201    0.9307    2.3273 Cl  0  0  0  0  0  0  0  0  0  0  0  0
   -1.6903    0.3687    1.1392 C   0  0  0  0  0  0  0  0  0  0  0  0
  1  2  1  0
  2  3  2  0
  3  4  1  0
  4  5  1  0
  4  6  2  0
  6  7  1  0
  7  8  1  0
  7  9  2  0
  9 10  1  0
 10 11  2  0
 11 12  1  0
 12 13  2  0
 13 14  1  0
 14 15  1  0
 14 16  2  0
  9  2  1  0
 16 10  1  0
M  END
>  <zinc_id>  (345) 
ZINC000013472728

>  <ortholog_name>  (345) 
DRTS_PLAFK

>  <gene_name>  (345) 
DRTS_PLAFK

>  <affinity>  (345) 
8.72

>  <chembldocid>  (345) 
17662

>  <title>  (345) 
None

>  <reference.pubmed_id>  (345) 
14736247

>  <reference.doi>  (345) 
None

>  <reference.chembl_id>  (345) 
CHEMBL1138835

>  <reference.journal>  (345) 
J. Med. Chem.

>  <reference.year>  (345) 
2004

$$$$

     RDKit          3D

 16 17  0  0  0  0  0  0  0  0999 V2000
    0.9804   -2.3196    0.8859 C   0  0  0  0  0  0  0  0  0  0  0  0
    1.4861   -0.9592    0.4990 C   0  0  0  0  0  0  0  0  0  0  0  0
    2.8309   -0.7251    0.4729 N   0  0  0  0  0  0  0  0  0  0  0  0
    3.2897    0.4952    0.1197 C   0  0  0  0  0  0  0  0  0  0  0  0
    4.6980    0.6906    0.1080 N   0  0  0  0  0  0  0  0  0  0  0  0
    2.4021    1.4367   -0.1933 N   0  0  0  0  0  0  0  0  0  0  0  0
    1.0888    1.2633   -0.1850 C   0  0  0  0  0  0  0  0  0  0  0  0
    0.2085    2.3045   -0.5259 N   0  0  0  0  0  0  0  0  0  0  0  0
    0.5784    0.0352    0.1686 C   0  0  0  0  0  0  0  0  0  0  0  0
   -0.8398   -0.2584    0.2278 C   0  0  0  0  0  0  0  0  0  0  0  0
   -1.4729   -1.1621   -0.6359 C   0  0  0  0  0  0  0  0  0  0  0  0
   -2.7949   -1.4288   -0.6161 C   0  0  0  0  0  0  0  0  0  0  0  0
   -3.5975   -0.7960    0.2895 C   0  0  0  0  0  0  0  0  0  0  0  0
   -3.0472    0.1241    1.1906 C   0  0  0  0  0  0  0  0  0  0  0  0
   -4.1201    0.9307    2.3273 Cl  0  0  0  0  0  0  0  0  0  0  0  0
   -1.6903    0.3687    1.1392 C   0  0  0  0  0  0  0  0  0  0  0  0
  1  2  1  0
  2  3  2  0
  3  4  1  0
  4  5  1  0
  4  6  2  0
  6  7  1  0
  7  8  1  0
  7  9  2  0
  9 10  1  0
 10 11  2  0
 11 12  1  0
 12 13  2  0
 13 14  1  0
 14 15  1  0
 14 16  2  0
  9  2  1  0
 16 10  1  0
M  END
>  <zinc_id>  (346) 
ZINC000013472728

>  <ortholog_name>  (346) 
DRTS_PLAFK

>  <gene_name>  (346) 
DRTS_PLAFK

>  <affinity>  (346) 
7.85

>  <chembldocid>  (346) 
17662

>  <title>  (346) 
None

>  <reference.pubmed_id>  (346) 
14736247

>  <reference.doi>  (346) 
None

>  <reference.chembl_id>  (346) 
CHEMBL1138835

>  <reference.journal>  (346) 
J. Med. Chem.

>  <reference.year>  (346) 
2004

$$$$

     RDKit          3D

 16 17  0  0  0  0  0  0  0  0999 V2000
    0.9804   -2.3196    0.8859 C   0  0  0  0  0  0  0  0  0  0  0  0
    1.4861   -0.9592    0.4990 C   0  0  0  0  0  0  0  0  0  0  0  0
    2.8309   -0.7251    0.4729 N   0  0  0  0  0  0  0  0  0  0  0  0
    3.2897    0.4952    0.1197 C   0  0  0  0  0  0  0  0  0  0  0  0
    4.6980    0.6906    0.1080 N   0  0  0  0  0  0  0  0  0  0  0  0
    2.4021    1.4367   -0.1933 N   0  0  0  0  0  0  0  0  0  0  0  0
    1.0888    1.2633   -0.1850 C   0  0  0  0  0  0  0  0  0  0  0  0
    0.2085    2.3045   -0.5259 N   0  0  0  0  0  0  0  0  0  0  0  0
    0.5784    0.0352    0.1686 C   0  0  0  0  0  0  0  0  0  0  0  0
   -0.8398   -0.2584    0.2278 C   0  0  0  0  0  0  0  0  0  0  0  0
   -1.4729   -1.1621   -0.6359 C   0  0  0  0  0  0  0  0  0  0  0  0
   -2.7949   -1.4288   -0.6161 C   0  0  0  0  0  0  0  0  0  0  0  0
   -3.5975   -0.7960    0.2895 C   0  0  0  0  0  0  0  0  0  0  0  0
   -3.0472    0.1241    1.1906 C   0  0  0  0  0  0  0  0  0  0  0  0
   -4.1201    0.9307    2.3273 Cl  0  0  0  0  0  0  0  0  0  0  0  0
   -1.6903    0.3687    1.1392 C   0  0  0  0  0  0  0  0  0  0  0  0
  1  2  1  0
  2  3  2  0
  3  4  1  0
  4  5  1  0
  4  6  2  0
  6  7  1  0
  7  8  1  0
  7  9  2  0
  9 10  1  0
 10 11  2  0
 11 12  1  0
 12 13  2  0
 13 14  1  0
 14 15  1  0
 14 16  2  0
  9  2  1  0
 16 10  1  0
M  END
>  <zinc_id>  (347) 
ZINC000013472728

>  <ortholog_name>  (347) 
DRTS_PLAFK

>  <gene_name>  (347) 
DRTS_PLAFK

>  <affinity>  (347) 
8.51

>  <chembldocid>  (347) 
16871

>  <title>  (347) 
None

>  <reference.pubmed_id>  (347) 
11881993

>  <reference.doi>  (347) 
None

>  <reference.chembl_id>  (347) 
CHEMBL1135602

>  <reference.journal>  (347) 
J. Med. Chem.

>  <reference.year>  (347) 
2002

$$$$

     RDKit          3D

 16 17  0  0  0  0  0  0  0  0999 V2000
    0.9804   -2.3196    0.8859 C   0  0  0  0  0  0  0  0  0  0  0  0
    1.4861   -0.9592    0.4990 C   0  0  0  0  0  0  0  0  0  0  0  0
    2.8309   -0.7251    0.4729 N   0  0  0  0  0  0  0  0  0  0  0  0
    3.2897    0.4952    0.1197 C   0  0  0  0  0  0  0  0  0  0  0  0
    4.6980    0.6906    0.1080 N   0  0  0  0  0  0  0  0  0  0  0  0
    2.4021    1.4367   -0.1933 N   0  0  0  0  0  0  0  0  0  0  0  0
    1.0888    1.2633   -0.1850 C   0  0  0  0  0  0  0  0  0  0  0  0
    0.2085    2.3045   -0.5259 N   0  0  0  0  0  0  0  0  0  0  0  0
    0.5784    0.0352    0.1686 C   0  0  0  0  0  0  0  0  0  0  0  0
   -0.8398   -0.2584    0.2278 C   0  0  0  0  0  0  0  0  0  0  0  0
   -1.4729   -1.1621   -0.6359 C   0  0  0  0  0  0  0  0  0  0  0  0
   -2.7949   -1.4288   -0.6161 C   0  0  0  0  0  0  0  0  0  0  0  0
   -3.5975   -0.7960    0.2895 C   0  0  0  0  0  0  0  0  0  0  0  0
   -3.0472    0.1241    1.1906 C   0  0  0  0  0  0  0  0  0  0  0  0
   -4.1201    0.9307    2.3273 Cl  0  0  0  0  0  0  0  0  0  0  0  0
   -1.6903    0.3687    1.1392 C   0  0  0  0  0  0  0  0  0  0  0  0
  1  2  1  0
  2  3  2  0
  3  4  1  0
  4  5  1  0
  4  6  2  0
  6  7  1  0
  7  8  1  0
  7  9  2  0
  9 10  1  0
 10 11  2  0
 11 12  1  0
 12 13  2  0
 13 14  1  0
 14 15  1  0
 14 16  2  0
  9  2  1  0
 16 10  1  0
M  END
>  <zinc_id>  (348) 
ZINC000013472728

>  <ortholog_name>  (348) 
DRTS_PLAFK

>  <gene_name>  (348) 
DRTS_PLAFK

>  <affinity>  (348) 
8.49

>  <chembldocid>  (348) 
16871

>  <title>  (348) 
None

>  <reference.pubmed_id>  (348) 
11881993

>  <reference.doi>  (348) 
None

>  <reference.chembl_id>  (348) 
CHEMBL1135602

>  <reference.journal>  (348) 
J. Med. Chem.

>  <reference.year>  (348) 
2002

$$$$

     RDKit          3D

 16 17  0  0  0  0  0  0  0  0999 V2000
    0.9804   -2.3196    0.8859 C   0  0  0  0  0  0  0  0  0  0  0  0
    1.4861   -0.9592    0.4990 C   0  0  0  0  0  0  0  0  0  0  0  0
    2.8309   -0.7251    0.4729 N   0  0  0  0  0  0  0  0  0  0  0  0
    3.2897    0.4952    0.1197 C   0  0  0  0  0  0  0  0  0  0  0  0
    4.6980    0.6906    0.1080 N   0  0  0  0  0  0  0  0  0  0  0  0
    2.4021    1.4367   -0.1933 N   0  0  0  0  0  0  0  0  0  0  0  0
    1.0888    1.2633   -0.1850 C   0  0  0  0  0  0  0  0  0  0  0  0
    0.2085    2.3045   -0.5259 N   0  0  0  0  0  0  0  0  0  0  0  0
    0.5784    0.0352    0.1686 C   0  0  0  0  0  0  0  0  0  0  0  0
   -0.8398   -0.2584    0.2278 C   0  0  0  0  0  0  0  0  0  0  0  0
   -1.4729   -1.1621   -0.6359 C   0  0  0  0  0  0  0  0  0  0  0  0
   -2.7949   -1.4288   -0.6161 C   0  0  0  0  0  0  0  0  0  0  0  0
   -3.5975   -0.7960    0.2895 C   0  0  0  0  0  0  0  0  0  0  0  0
   -3.0472    0.1241    1.1906 C   0  0  0  0  0  0  0  0  0  0  0  0
   -4.1201    0.9307    2.3273 Cl  0  0  0  0  0  0  0  0  0  0  0  0
   -1.6903    0.3687    1.1392 C   0  0  0  0  0  0  0  0  0  0  0  0
  1  2  1  0
  2  3  2  0
  3  4  1  0
  4  5  1  0
  4  6  2  0
  6  7  1  0
  7  8  1  0
  7  9  2  0
  9 10  1  0
 10 11  2  0
 11 12  1  0
 12 13  2  0
 13 14  1  0
 14 15  1  0
 14 16  2  0
  9  2  1  0
 16 10  1  0
M  END
>  <zinc_id>  (349) 
ZINC000013472728

>  <ortholog_name>  (349) 
DRTS_PLAFK

>  <gene_name>  (349) 
DRTS_PLAFK

>  <affinity>  (349) 
5.32

>  <chembldocid>  (349) 
16871

>  <title>  (349) 
None

>  <reference.pubmed_id>  (349) 
11881993

>  <reference.doi>  (349) 
None

>  <reference.chembl_id>  (349) 
CHEMBL1135602

>  <reference.journal>  (349) 
J. Med. Chem.

>  <reference.year>  (349) 
2002

$$$$

     RDKit          3D

 16 17  0  0  0  0  0  0  0  0999 V2000
    0.9804   -2.3196    0.8859 C   0  0  0  0  0  0  0  0  0  0  0  0
    1.4861   -0.9592    0.4990 C   0  0  0  0  0  0  0  0  0  0  0  0
    2.8309   -0.7251    0.4729 N   0  0  0  0  0  0  0  0  0  0  0  0
    3.2897    0.4952    0.1197 C   0  0  0  0  0  0  0  0  0  0  0  0
    4.6980    0.6906    0.1080 N   0  0  0  0  0  0  0  0  0  0  0  0
    2.4021    1.4367   -0.1933 N   0  0  0  0  0  0  0  0  0  0  0  0
    1.0888    1.2633   -0.1850 C   0  0  0  0  0  0  0  0  0  0  0  0
    0.2085    2.3045   -0.5259 N   0  0  0  0  0  0  0  0  0  0  0  0
    0.5784    0.0352    0.1686 C   0  0  0  0  0  0  0  0  0  0  0  0
   -0.8398   -0.2584    0.2278 C   0  0  0  0  0  0  0  0  0  0  0  0
   -1.4729   -1.1621   -0.6359 C   0  0  0  0  0  0  0  0  0  0  0  0
   -2.7949   -1.4288   -0.6161 C   0  0  0  0  0  0  0  0  0  0  0  0
   -3.5975   -0.7960    0.2895 C   0  0  0  0  0  0  0  0  0  0  0  0
   -3.0472    0.1241    1.1906 C   0  0  0  0  0  0  0  0  0  0  0  0
   -4.1201    0.9307    2.3273 Cl  0  0  0  0  0  0  0  0  0  0  0  0
   -1.6903    0.3687    1.1392 C   0  0  0  0  0  0  0  0  0  0  0  0
  1  2  1  0
  2  3  2  0
  3  4  1  0
  4  5  1  0
  4  6  2  0
  6  7  1  0
  7  8  1  0
  7  9  2  0
  9 10  1  0
 10 11  2  0
 11 12  1  0
 12 13  2  0
 13 14  1  0
 14 15  1  0
 14 16  2  0
  9  2  1  0
 16 10  1  0
M  END
>  <zinc_id>  (350) 
ZINC000013472728

>  <ortholog_name>  (350) 
DRTS_PLAFK

>  <gene_name>  (350) 
DRTS_PLAFK

>  <affinity>  (350) 
8.19

>  <chembldocid>  (350) 
17662

>  <title>  (350) 
None

>  <reference.pubmed_id>  (350) 
14736247

>  <reference.doi>  (350) 
None

>  <reference.chembl_id>  (350) 
CHEMBL1138835

>  <reference.journal>  (350) 
J. Med. Chem.

>  <reference.year>  (350) 
2004

$$$$

     RDKit          3D

 16 17  0  0  0  0  0  0  0  0999 V2000
    0.9804   -2.3196    0.8859 C   0  0  0  0  0  0  0  0  0  0  0  0
    1.4861   -0.9592    0.4990 C   0  0  0  0  0  0  0  0  0  0  0  0
    2.8309   -0.7251    0.4729 N   0  0  0  0  0  0  0  0  0  0  0  0
    3.2897    0.4952    0.1197 C   0  0  0  0  0  0  0  0  0  0  0  0
    4.6980    0.6906    0.1080 N   0  0  0  0  0  0  0  0  0  0  0  0
    2.4021    1.4367   -0.1933 N   0  0  0  0  0  0  0  0  0  0  0  0
    1.0888    1.2633   -0.1850 C   0  0  0  0  0  0  0  0  0  0  0  0
    0.2085    2.3045   -0.5259 N   0  0  0  0  0  0  0  0  0  0  0  0
    0.5784    0.0352    0.1686 C   0  0  0  0  0  0  0  0  0  0  0  0
   -0.8398   -0.2584    0.2278 C   0  0  0  0  0  0  0  0  0  0  0  0
   -1.4729   -1.1621   -0.6359 C   0  0  0  0  0  0  0  0  0  0  0  0
   -2.7949   -1.4288   -0.6161 C   0  0  0  0  0  0  0  0  0  0  0  0
   -3.5975   -0.7960    0.2895 C   0  0  0  0  0  0  0  0  0  0  0  0
   -3.0472    0.1241    1.1906 C   0  0  0  0  0  0  0  0  0  0  0  0
   -4.1201    0.9307    2.3273 Cl  0  0  0  0  0  0  0  0  0  0  0  0
   -1.6903    0.3687    1.1392 C   0  0  0  0  0  0  0  0  0  0  0  0
  1  2  1  0
  2  3  2  0
  3  4  1  0
  4  5  1  0
  4  6  2  0
  6  7  1  0
  7  8  1  0
  7  9  2  0
  9 10  1  0
 10 11  2  0
 11 12  1  0
 12 13  2  0
 13 14  1  0
 14 15  1  0
 14 16  2  0
  9  2  1  0
 16 10  1  0
M  END
>  <zinc_id>  (351) 
ZINC000013472728

>  <ortholog_name>  (351) 
DRTS_PLAFK

>  <gene_name>  (351) 
DRTS_PLAFK

>  <affinity>  (351) 
7.08

>  <chembldocid>  (351) 
21047

>  <title>  (351) 
None

>  <reference.pubmed_id>  (351) 
15293997

>  <reference.doi>  (351) 
None

>  <reference.chembl_id>  (351) 
CHEMBL1138679

>  <reference.journal>  (351) 
J. Med. Chem.

>  <reference.year>  (351) 
2004

$$$$

     RDKit          3D

 16 17  0  0  0  0  0  0  0  0999 V2000
    0.9804   -2.3196    0.8859 C   0  0  0  0  0  0  0  0  0  0  0  0
    1.4861   -0.9592    0.4990 C   0  0  0  0  0  0  0  0  0  0  0  0
    2.8309   -0.7251    0.4729 N   0  0  0  0  0  0  0  0  0  0  0  0
    3.2897    0.4952    0.1197 C   0  0  0  0  0  0  0  0  0  0  0  0
    4.6980    0.6906    0.1080 N   0  0  0  0  0  0  0  0  0  0  0  0
    2.4021    1.4367   -0.1933 N   0  0  0  0  0  0  0  0  0  0  0  0
    1.0888    1.2633   -0.1850 C   0  0  0  0  0  0  0  0  0  0  0  0
    0.2085    2.3045   -0.5259 N   0  0  0  0  0  0  0  0  0  0  0  0
    0.5784    0.0352    0.1686 C   0  0  0  0  0  0  0  0  0  0  0  0
   -0.8398   -0.2584    0.2278 C   0  0  0  0  0  0  0  0  0  0  0  0
   -1.4729   -1.1621   -0.6359 C   0  0  0  0  0  0  0  0  0  0  0  0
   -2.7949   -1.4288   -0.6161 C   0  0  0  0  0  0  0  0  0  0  0  0
   -3.5975   -0.7960    0.2895 C   0  0  0  0  0  0  0  0  0  0  0  0
   -3.0472    0.1241    1.1906 C   0  0  0  0  0  0  0  0  0  0  0  0
   -4.1201    0.9307    2.3273 Cl  0  0  0  0  0  0  0  0  0  0  0  0
   -1.6903    0.3687    1.1392 C   0  0  0  0  0  0  0  0  0  0  0  0
  1  2  1  0
  2  3  2  0
  3  4  1  0
  4  5  1  0
  4  6  2  0
  6  7  1  0
  7  8  1  0
  7  9  2  0
  9 10  1  0
 10 11  2  0
 11 12  1  0
 12 13  2  0
 13 14  1  0
 14 15  1  0
 14 16  2  0
  9  2  1  0
 16 10  1  0
M  END
>  <zinc_id>  (352) 
ZINC000013472728

>  <ortholog_name>  (352) 
DRTS_PLAFK

>  <gene_name>  (352) 
DRTS_PLAFK

>  <affinity>  (352) 
8.01

>  <chembldocid>  (352) 
17662

>  <title>  (352) 
None

>  <reference.pubmed_id>  (352) 
14736247

>  <reference.doi>  (352) 
None

>  <reference.chembl_id>  (352) 
CHEMBL1138835

>  <reference.journal>  (352) 
J. Med. Chem.

>  <reference.year>  (352) 
2004

$$$$

     RDKit          3D

 22 23  0  0  0  0  0  0  0  0999 V2000
    6.3179    0.0447    0.5080 C   0  0  0  0  0  0  0  0  0  0  0  0
    4.9077    0.0930    0.5381 O   0  0  0  0  0  0  0  0  0  0  0  0
    4.2269    0.4726   -0.6322 C   0  0  0  0  0  0  0  0  0  0  0  0
    4.9020    0.7448   -1.6476 O   0  0  0  0  0  0  0  0  0  0  0  0
    2.7320    0.5294   -0.6099 C   0  0  0  0  0  0  0  0  0  0  0  0
    2.2035   -0.7509   -1.2293 C   0  0  0  0  0  0  0  0  0  0  0  0
    0.6761   -0.7137   -1.1855 C   0  0  0  0  0  0  0  0  0  0  0  0
    0.2323   -0.5924    0.2399 C   0  0  0  0  0  0  0  0  0  0  0  0
    1.0544   -0.8514    1.2457 N   0  0  0  0  0  0  0  0  0  0  0  0
    0.6912   -0.7416    2.5341 C   0  0  0  0  0  0  0  0  0  0  0  0
    1.6433   -1.0518    3.5393 N   0  0  0  0  0  0  0  0  0  0  0  0
   -0.5572   -0.3539    2.8486 N   0  0  0  0  0  0  0  0  0  0  0  0
   -1.4053   -0.0898    1.8452 C   0  0  0  0  0  0  0  0  0  0  0  0
   -2.7320    0.3306    2.1440 N   0  0  0  0  0  0  0  0  0  0  0  0
   -1.0490   -0.1974    0.5096 C   0  0  0  0  0  0  0  0  0  0  0  0
   -2.0510    0.0838   -0.5312 C   0  0  0  0  0  0  0  0  0  0  0  0
   -2.0054    1.1725   -1.3669 C   0  0  0  0  0  0  0  0  0  0  0  0
   -3.0018    1.3519   -2.3034 C   0  0  0  0  0  0  0  0  0  0  0  0
   -4.0712    0.4680   -2.4410 C   0  0  0  0  0  0  0  0  0  0  0  0
   -4.1203   -0.6386   -1.5887 C   0  0  0  0  0  0  0  0  0  0  0  0
   -5.4741   -1.7472   -1.7561 Cl  0  0  0  0  0  0  0  0  0  0  0  0
   -3.1201   -0.8107   -0.6606 C   0  0  0  0  0  0  0  0  0  0  0  0
  1  2  1  0
  2  3  1  0
  3  4  2  0
  3  5  1  0
  5  6  1  0
  6  7  1  0
  7  8  1  0
  8  9  2  0
  9 10  1  0
 10 11  1  0
 10 12  2  0
 12 13  1  0
 13 14  1  0
 13 15  2  0
 15 16  1  0
 16 17  2  0
 17 18  1  0
 18 19  2  0
 19 20  1  0
 20 21  1  0
 20 22  2  0
 15  8  1  0
 22 16  1  0
M  END
>  <zinc_id>  (353) 
ZINC000013472729

>  <ortholog_name>  (353) 
DRTS_PLAFK

>  <gene_name>  (353) 
DRTS_PLAFK

>  <affinity>  (353) 
9.30

>  <chembldocid>  (353) 
16871

>  <title>  (353) 
None

>  <reference.pubmed_id>  (353) 
11881993

>  <reference.doi>  (353) 
None

>  <reference.chembl_id>  (353) 
CHEMBL1135602

>  <reference.journal>  (353) 
J. Med. Chem.

>  <reference.year>  (353) 
2002

$$$$

     RDKit          3D

 22 23  0  0  0  0  0  0  0  0999 V2000
    6.3179    0.0447    0.5080 C   0  0  0  0  0  0  0  0  0  0  0  0
    4.9077    0.0930    0.5381 O   0  0  0  0  0  0  0  0  0  0  0  0
    4.2269    0.4726   -0.6322 C   0  0  0  0  0  0  0  0  0  0  0  0
    4.9020    0.7448   -1.6476 O   0  0  0  0  0  0  0  0  0  0  0  0
    2.7320    0.5294   -0.6099 C   0  0  0  0  0  0  0  0  0  0  0  0
    2.2035   -0.7509   -1.2293 C   0  0  0  0  0  0  0  0  0  0  0  0
    0.6761   -0.7137   -1.1855 C   0  0  0  0  0  0  0  0  0  0  0  0
    0.2323   -0.5924    0.2399 C   0  0  0  0  0  0  0  0  0  0  0  0
    1.0544   -0.8514    1.2457 N   0  0  0  0  0  0  0  0  0  0  0  0
    0.6912   -0.7416    2.5341 C   0  0  0  0  0  0  0  0  0  0  0  0
    1.6433   -1.0518    3.5393 N   0  0  0  0  0  0  0  0  0  0  0  0
   -0.5572   -0.3539    2.8486 N   0  0  0  0  0  0  0  0  0  0  0  0
   -1.4053   -0.0898    1.8452 C   0  0  0  0  0  0  0  0  0  0  0  0
   -2.7320    0.3306    2.1440 N   0  0  0  0  0  0  0  0  0  0  0  0
   -1.0490   -0.1974    0.5096 C   0  0  0  0  0  0  0  0  0  0  0  0
   -2.0510    0.0838   -0.5312 C   0  0  0  0  0  0  0  0  0  0  0  0
   -2.0054    1.1725   -1.3669 C   0  0  0  0  0  0  0  0  0  0  0  0
   -3.0018    1.3519   -2.3034 C   0  0  0  0  0  0  0  0  0  0  0  0
   -4.0712    0.4680   -2.4410 C   0  0  0  0  0  0  0  0  0  0  0  0
   -4.1203   -0.6386   -1.5887 C   0  0  0  0  0  0  0  0  0  0  0  0
   -5.4741   -1.7472   -1.7561 Cl  0  0  0  0  0  0  0  0  0  0  0  0
   -3.1201   -0.8107   -0.6606 C   0  0  0  0  0  0  0  0  0  0  0  0
  1  2  1  0
  2  3  1  0
  3  4  2  0
  3  5  1  0
  5  6  1  0
  6  7  1  0
  7  8  1  0
  8  9  2  0
  9 10  1  0
 10 11  1  0
 10 12  2  0
 12 13  1  0
 13 14  1  0
 13 15  2  0
 15 16  1  0
 16 17  2  0
 17 18  1  0
 18 19  2  0
 19 20  1  0
 20 21  1  0
 20 22  2  0
 15  8  1  0
 22 16  1  0
M  END
>  <zinc_id>  (354) 
ZINC000013472729

>  <ortholog_name>  (354) 
DRTS_PLAFK

>  <gene_name>  (354) 
DRTS_PLAFK

>  <affinity>  (354) 
9.30

>  <chembldocid>  (354) 
17662

>  <title>  (354) 
None

>  <reference.pubmed_id>  (354) 
14736247

>  <reference.doi>  (354) 
None

>  <reference.chembl_id>  (354) 
CHEMBL1138835

>  <reference.journal>  (354) 
J. Med. Chem.

>  <reference.year>  (354) 
2004

$$$$

     RDKit          3D

 22 23  0  0  0  0  0  0  0  0999 V2000
    6.3179    0.0447    0.5080 C   0  0  0  0  0  0  0  0  0  0  0  0
    4.9077    0.0930    0.5381 O   0  0  0  0  0  0  0  0  0  0  0  0
    4.2269    0.4726   -0.6322 C   0  0  0  0  0  0  0  0  0  0  0  0
    4.9020    0.7448   -1.6476 O   0  0  0  0  0  0  0  0  0  0  0  0
    2.7320    0.5294   -0.6099 C   0  0  0  0  0  0  0  0  0  0  0  0
    2.2035   -0.7509   -1.2293 C   0  0  0  0  0  0  0  0  0  0  0  0
    0.6761   -0.7137   -1.1855 C   0  0  0  0  0  0  0  0  0  0  0  0
    0.2323   -0.5924    0.2399 C   0  0  0  0  0  0  0  0  0  0  0  0
    1.0544   -0.8514    1.2457 N   0  0  0  0  0  0  0  0  0  0  0  0
    0.6912   -0.7416    2.5341 C   0  0  0  0  0  0  0  0  0  0  0  0
    1.6433   -1.0518    3.5393 N   0  0  0  0  0  0  0  0  0  0  0  0
   -0.5572   -0.3539    2.8486 N   0  0  0  0  0  0  0  0  0  0  0  0
   -1.4053   -0.0898    1.8452 C   0  0  0  0  0  0  0  0  0  0  0  0
   -2.7320    0.3306    2.1440 N   0  0  0  0  0  0  0  0  0  0  0  0
   -1.0490   -0.1974    0.5096 C   0  0  0  0  0  0  0  0  0  0  0  0
   -2.0510    0.0838   -0.5312 C   0  0  0  0  0  0  0  0  0  0  0  0
   -2.0054    1.1725   -1.3669 C   0  0  0  0  0  0  0  0  0  0  0  0
   -3.0018    1.3519   -2.3034 C   0  0  0  0  0  0  0  0  0  0  0  0
   -4.0712    0.4680   -2.4410 C   0  0  0  0  0  0  0  0  0  0  0  0
   -4.1203   -0.6386   -1.5887 C   0  0  0  0  0  0  0  0  0  0  0  0
   -5.4741   -1.7472   -1.7561 Cl  0  0  0  0  0  0  0  0  0  0  0  0
   -3.1201   -0.8107   -0.6606 C   0  0  0  0  0  0  0  0  0  0  0  0
  1  2  1  0
  2  3  1  0
  3  4  2  0
  3  5  1  0
  5  6  1  0
  6  7  1  0
  7  8  1  0
  8  9  2  0
  9 10  1  0
 10 11  1  0
 10 12  2  0
 12 13  1  0
 13 14  1  0
 13 15  2  0
 15 16  1  0
 16 17  2  0
 17 18  1  0
 18 19  2  0
 19 20  1  0
 20 21  1  0
 20 22  2  0
 15  8  1  0
 22 16  1  0
M  END
>  <zinc_id>  (355) 
ZINC000013472729

>  <ortholog_name>  (355) 
DRTS_PLAFK

>  <gene_name>  (355) 
DRTS_PLAFK

>  <affinity>  (355) 
9.11

>  <chembldocid>  (355) 
17662

>  <title>  (355) 
None

>  <reference.pubmed_id>  (355) 
14736247

>  <reference.doi>  (355) 
None

>  <reference.chembl_id>  (355) 
CHEMBL1138835

>  <reference.journal>  (355) 
J. Med. Chem.

>  <reference.year>  (355) 
2004

$$$$

     RDKit          3D

 22 23  0  0  0  0  0  0  0  0999 V2000
    6.3179    0.0447    0.5080 C   0  0  0  0  0  0  0  0  0  0  0  0
    4.9077    0.0930    0.5381 O   0  0  0  0  0  0  0  0  0  0  0  0
    4.2269    0.4726   -0.6322 C   0  0  0  0  0  0  0  0  0  0  0  0
    4.9020    0.7448   -1.6476 O   0  0  0  0  0  0  0  0  0  0  0  0
    2.7320    0.5294   -0.6099 C   0  0  0  0  0  0  0  0  0  0  0  0
    2.2035   -0.7509   -1.2293 C   0  0  0  0  0  0  0  0  0  0  0  0
    0.6761   -0.7137   -1.1855 C   0  0  0  0  0  0  0  0  0  0  0  0
    0.2323   -0.5924    0.2399 C   0  0  0  0  0  0  0  0  0  0  0  0
    1.0544   -0.8514    1.2457 N   0  0  0  0  0  0  0  0  0  0  0  0
    0.6912   -0.7416    2.5341 C   0  0  0  0  0  0  0  0  0  0  0  0
    1.6433   -1.0518    3.5393 N   0  0  0  0  0  0  0  0  0  0  0  0
   -0.5572   -0.3539    2.8486 N   0  0  0  0  0  0  0  0  0  0  0  0
   -1.4053   -0.0898    1.8452 C   0  0  0  0  0  0  0  0  0  0  0  0
   -2.7320    0.3306    2.1440 N   0  0  0  0  0  0  0  0  0  0  0  0
   -1.0490   -0.1974    0.5096 C   0  0  0  0  0  0  0  0  0  0  0  0
   -2.0510    0.0838   -0.5312 C   0  0  0  0  0  0  0  0  0  0  0  0
   -2.0054    1.1725   -1.3669 C   0  0  0  0  0  0  0  0  0  0  0  0
   -3.0018    1.3519   -2.3034 C   0  0  0  0  0  0  0  0  0  0  0  0
   -4.0712    0.4680   -2.4410 C   0  0  0  0  0  0  0  0  0  0  0  0
   -4.1203   -0.6386   -1.5887 C   0  0  0  0  0  0  0  0  0  0  0  0
   -5.4741   -1.7472   -1.7561 Cl  0  0  0  0  0  0  0  0  0  0  0  0
   -3.1201   -0.8107   -0.6606 C   0  0  0  0  0  0  0  0  0  0  0  0
  1  2  1  0
  2  3  1  0
  3  4  2  0
  3  5  1  0
  5  6  1  0
  6  7  1  0
  7  8  1  0
  8  9  2  0
  9 10  1  0
 10 11  1  0
 10 12  2  0
 12 13  1  0
 13 14  1  0
 13 15  2  0
 15 16  1  0
 16 17  2  0
 17 18  1  0
 18 19  2  0
 19 20  1  0
 20 21  1  0
 20 22  2  0
 15  8  1  0
 22 16  1  0
M  END
>  <zinc_id>  (356) 
ZINC000013472729

>  <ortholog_name>  (356) 
DRTS_PLAFK

>  <gene_name>  (356) 
DRTS_PLAFK

>  <affinity>  (356) 
8.77

>  <chembldocid>  (356) 
16871

>  <title>  (356) 
None

>  <reference.pubmed_id>  (356) 
11881993

>  <reference.doi>  (356) 
None

>  <reference.chembl_id>  (356) 
CHEMBL1135602

>  <reference.journal>  (356) 
J. Med. Chem.

>  <reference.year>  (356) 
2002

$$$$

     RDKit          3D

 22 23  0  0  0  0  0  0  0  0999 V2000
    6.3179    0.0447    0.5080 C   0  0  0  0  0  0  0  0  0  0  0  0
    4.9077    0.0930    0.5381 O   0  0  0  0  0  0  0  0  0  0  0  0
    4.2269    0.4726   -0.6322 C   0  0  0  0  0  0  0  0  0  0  0  0
    4.9020    0.7448   -1.6476 O   0  0  0  0  0  0  0  0  0  0  0  0
    2.7320    0.5294   -0.6099 C   0  0  0  0  0  0  0  0  0  0  0  0
    2.2035   -0.7509   -1.2293 C   0  0  0  0  0  0  0  0  0  0  0  0
    0.6761   -0.7137   -1.1855 C   0  0  0  0  0  0  0  0  0  0  0  0
    0.2323   -0.5924    0.2399 C   0  0  0  0  0  0  0  0  0  0  0  0
    1.0544   -0.8514    1.2457 N   0  0  0  0  0  0  0  0  0  0  0  0
    0.6912   -0.7416    2.5341 C   0  0  0  0  0  0  0  0  0  0  0  0
    1.6433   -1.0518    3.5393 N   0  0  0  0  0  0  0  0  0  0  0  0
   -0.5572   -0.3539    2.8486 N   0  0  0  0  0  0  0  0  0  0  0  0
   -1.4053   -0.0898    1.8452 C   0  0  0  0  0  0  0  0  0  0  0  0
   -2.7320    0.3306    2.1440 N   0  0  0  0  0  0  0  0  0  0  0  0
   -1.0490   -0.1974    0.5096 C   0  0  0  0  0  0  0  0  0  0  0  0
   -2.0510    0.0838   -0.5312 C   0  0  0  0  0  0  0  0  0  0  0  0
   -2.0054    1.1725   -1.3669 C   0  0  0  0  0  0  0  0  0  0  0  0
   -3.0018    1.3519   -2.3034 C   0  0  0  0  0  0  0  0  0  0  0  0
   -4.0712    0.4680   -2.4410 C   0  0  0  0  0  0  0  0  0  0  0  0
   -4.1203   -0.6386   -1.5887 C   0  0  0  0  0  0  0  0  0  0  0  0
   -5.4741   -1.7472   -1.7561 Cl  0  0  0  0  0  0  0  0  0  0  0  0
   -3.1201   -0.8107   -0.6606 C   0  0  0  0  0  0  0  0  0  0  0  0
  1  2  1  0
  2  3  1  0
  3  4  2  0
  3  5  1  0
  5  6  1  0
  6  7  1  0
  7  8  1  0
  8  9  2  0
  9 10  1  0
 10 11  1  0
 10 12  2  0
 12 13  1  0
 13 14  1  0
 13 15  2  0
 15 16  1  0
 16 17  2  0
 17 18  1  0
 18 19  2  0
 19 20  1  0
 20 21  1  0
 20 22  2  0
 15  8  1  0
 22 16  1  0
M  END
>  <zinc_id>  (357) 
ZINC000013472729

>  <ortholog_name>  (357) 
DRTS_PLAFK

>  <gene_name>  (357) 
DRTS_PLAFK

>  <affinity>  (357) 
8.74

>  <chembldocid>  (357) 
17662

>  <title>  (357) 
None

>  <reference.pubmed_id>  (357) 
14736247

>  <reference.doi>  (357) 
None

>  <reference.chembl_id>  (357) 
CHEMBL1138835

>  <reference.journal>  (357) 
J. Med. Chem.

>  <reference.year>  (357) 
2004

$$$$

     RDKit          3D

 22 23  0  0  0  0  0  0  0  0999 V2000
    6.3179    0.0447    0.5080 C   0  0  0  0  0  0  0  0  0  0  0  0
    4.9077    0.0930    0.5381 O   0  0  0  0  0  0  0  0  0  0  0  0
    4.2269    0.4726   -0.6322 C   0  0  0  0  0  0  0  0  0  0  0  0
    4.9020    0.7448   -1.6476 O   0  0  0  0  0  0  0  0  0  0  0  0
    2.7320    0.5294   -0.6099 C   0  0  0  0  0  0  0  0  0  0  0  0
    2.2035   -0.7509   -1.2293 C   0  0  0  0  0  0  0  0  0  0  0  0
    0.6761   -0.7137   -1.1855 C   0  0  0  0  0  0  0  0  0  0  0  0
    0.2323   -0.5924    0.2399 C   0  0  0  0  0  0  0  0  0  0  0  0
    1.0544   -0.8514    1.2457 N   0  0  0  0  0  0  0  0  0  0  0  0
    0.6912   -0.7416    2.5341 C   0  0  0  0  0  0  0  0  0  0  0  0
    1.6433   -1.0518    3.5393 N   0  0  0  0  0  0  0  0  0  0  0  0
   -0.5572   -0.3539    2.8486 N   0  0  0  0  0  0  0  0  0  0  0  0
   -1.4053   -0.0898    1.8452 C   0  0  0  0  0  0  0  0  0  0  0  0
   -2.7320    0.3306    2.1440 N   0  0  0  0  0  0  0  0  0  0  0  0
   -1.0490   -0.1974    0.5096 C   0  0  0  0  0  0  0  0  0  0  0  0
   -2.0510    0.0838   -0.5312 C   0  0  0  0  0  0  0  0  0  0  0  0
   -2.0054    1.1725   -1.3669 C   0  0  0  0  0  0  0  0  0  0  0  0
   -3.0018    1.3519   -2.3034 C   0  0  0  0  0  0  0  0  0  0  0  0
   -4.0712    0.4680   -2.4410 C   0  0  0  0  0  0  0  0  0  0  0  0
   -4.1203   -0.6386   -1.5887 C   0  0  0  0  0  0  0  0  0  0  0  0
   -5.4741   -1.7472   -1.7561 Cl  0  0  0  0  0  0  0  0  0  0  0  0
   -3.1201   -0.8107   -0.6606 C   0  0  0  0  0  0  0  0  0  0  0  0
  1  2  1  0
  2  3  1  0
  3  4  2  0
  3  5  1  0
  5  6  1  0
  6  7  1  0
  7  8  1  0
  8  9  2  0
  9 10  1  0
 10 11  1  0
 10 12  2  0
 12 13  1  0
 13 14  1  0
 13 15  2  0
 15 16  1  0
 16 17  2  0
 17 18  1  0
 18 19  2  0
 19 20  1  0
 20 21  1  0
 20 22  2  0
 15  8  1  0
 22 16  1  0
M  END
>  <zinc_id>  (358) 
ZINC000013472729

>  <ortholog_name>  (358) 
DRTS_PLAFK

>  <gene_name>  (358) 
DRTS_PLAFK

>  <affinity>  (358) 
8.57

>  <chembldocid>  (358) 
17662

>  <title>  (358) 
None

>  <reference.pubmed_id>  (358) 
14736247

>  <reference.doi>  (358) 
None

>  <reference.chembl_id>  (358) 
CHEMBL1138835

>  <reference.journal>  (358) 
J. Med. Chem.

>  <reference.year>  (358) 
2004

$$$$

     RDKit          3D

 22 23  0  0  0  0  0  0  0  0999 V2000
    6.3179    0.0447    0.5080 C   0  0  0  0  0  0  0  0  0  0  0  0
    4.9077    0.0930    0.5381 O   0  0  0  0  0  0  0  0  0  0  0  0
    4.2269    0.4726   -0.6322 C   0  0  0  0  0  0  0  0  0  0  0  0
    4.9020    0.7448   -1.6476 O   0  0  0  0  0  0  0  0  0  0  0  0
    2.7320    0.5294   -0.6099 C   0  0  0  0  0  0  0  0  0  0  0  0
    2.2035   -0.7509   -1.2293 C   0  0  0  0  0  0  0  0  0  0  0  0
    0.6761   -0.7137   -1.1855 C   0  0  0  0  0  0  0  0  0  0  0  0
    0.2323   -0.5924    0.2399 C   0  0  0  0  0  0  0  0  0  0  0  0
    1.0544   -0.8514    1.2457 N   0  0  0  0  0  0  0  0  0  0  0  0
    0.6912   -0.7416    2.5341 C   0  0  0  0  0  0  0  0  0  0  0  0
    1.6433   -1.0518    3.5393 N   0  0  0  0  0  0  0  0  0  0  0  0
   -0.5572   -0.3539    2.8486 N   0  0  0  0  0  0  0  0  0  0  0  0
   -1.4053   -0.0898    1.8452 C   0  0  0  0  0  0  0  0  0  0  0  0
   -2.7320    0.3306    2.1440 N   0  0  0  0  0  0  0  0  0  0  0  0
   -1.0490   -0.1974    0.5096 C   0  0  0  0  0  0  0  0  0  0  0  0
   -2.0510    0.0838   -0.5312 C   0  0  0  0  0  0  0  0  0  0  0  0
   -2.0054    1.1725   -1.3669 C   0  0  0  0  0  0  0  0  0  0  0  0
   -3.0018    1.3519   -2.3034 C   0  0  0  0  0  0  0  0  0  0  0  0
   -4.0712    0.4680   -2.4410 C   0  0  0  0  0  0  0  0  0  0  0  0
   -4.1203   -0.6386   -1.5887 C   0  0  0  0  0  0  0  0  0  0  0  0
   -5.4741   -1.7472   -1.7561 Cl  0  0  0  0  0  0  0  0  0  0  0  0
   -3.1201   -0.8107   -0.6606 C   0  0  0  0  0  0  0  0  0  0  0  0
  1  2  1  0
  2  3  1  0
  3  4  2  0
  3  5  1  0
  5  6  1  0
  6  7  1  0
  7  8  1  0
  8  9  2  0
  9 10  1  0
 10 11  1  0
 10 12  2  0
 12 13  1  0
 13 14  1  0
 13 15  2  0
 15 16  1  0
 16 17  2  0
 17 18  1  0
 18 19  2  0
 19 20  1  0
 20 21  1  0
 20 22  2  0
 15  8  1  0
 22 16  1  0
M  END
>  <zinc_id>  (359) 
ZINC000013472729

>  <ortholog_name>  (359) 
DRTS_PLAFK

>  <gene_name>  (359) 
DRTS_PLAFK

>  <affinity>  (359) 
8.55

>  <chembldocid>  (359) 
16871

>  <title>  (359) 
None

>  <reference.pubmed_id>  (359) 
11881993

>  <reference.doi>  (359) 
None

>  <reference.chembl_id>  (359) 
CHEMBL1135602

>  <reference.journal>  (359) 
J. Med. Chem.

>  <reference.year>  (359) 
2002

$$$$

     RDKit          3D

 24 26  0  0  0  0  0  0  0  0999 V2000
   -0.7019   -5.1477   -0.0740 N   0  0  0  0  0  0  0  0  0  0  0  0
   -0.9877   -3.7537   -0.0570 C   0  0  0  0  0  0  0  0  0  0  0  0
   -1.8094   -3.1800   -0.9509 N   0  0  0  0  0  0  0  0  0  0  0  0
   -2.0774   -1.8799   -0.9441 C   0  0  0  0  0  0  0  0  0  0  0  0
   -2.9418   -1.2463   -1.8911 N   0  0  0  0  0  0  0  0  0  0  0  0
   -1.5040   -1.0281    0.0148 C   0  0  0  0  0  0  0  0  0  0  0  0
   -1.9069    0.3924    0.0132 C   0  0  0  0  0  0  0  0  0  0  0  0
   -2.7693    0.7756    1.0488 C   0  0  0  0  0  0  0  0  0  0  0  0
   -3.2507    2.0444    1.1621 C   0  0  0  0  0  0  0  0  0  0  0  0
   -2.8916    2.9884    0.2434 C   0  0  0  0  0  0  0  0  0  0  0  0
   -2.0361    2.6169   -0.7879 C   0  0  0  0  0  0  0  0  0  0  0  0
   -1.6020    3.8648   -1.9371 Cl  0  0  0  0  0  0  0  0  0  0  0  0
   -1.5495    1.3214   -0.8981 C   0  0  0  0  0  0  0  0  0  0  0  0
   -0.6662   -1.6023    0.9257 C   0  0  0  0  0  0  0  0  0  0  0  0
    0.0329   -0.7765    1.9284 C   0  0  0  0  0  0  0  0  0  0  0  0
    1.3448   -0.2914    1.4508 C   0  0  0  0  0  0  0  0  0  0  0  0
    1.3610    0.5332    0.2417 C   0  0  0  0  0  0  0  0  0  0  0  0
    2.7648    0.8837   -0.0770 C   0  0  0  0  0  0  0  0  0  0  0  0
    3.3062    2.0328    0.4479 C   0  0  0  0  0  0  0  0  0  0  0  0
    4.5898    2.3750    0.1712 C   0  0  0  0  0  0  0  0  0  0  0  0
    5.3632    1.5562   -0.6496 C   0  0  0  0  0  0  0  0  0  0  0  0
    4.8374    0.3985   -1.1848 C   0  0  0  0  0  0  0  0  0  0  0  0
    3.5325    0.0698   -0.8924 C   0  0  0  0  0  0  0  0  0  0  0  0
   -0.4382   -2.9471    0.8575 N   0  0  0  0  0  0  0  0  0  0  0  0
  1  2  1  0
  2  3  2  0
  3  4  1  0
  4  5  1  0
  4  6  2  0
  6  7  1  0
  7  8  2  0
  8  9  1  0
  9 10  2  0
 10 11  1  0
 11 12  1  0
 11 13  2  0
  6 14  1  0
 14 15  1  0
 15 16  1  0
 16 17  1  0
 17 18  1  0
 18 19  2  0
 19 20  1  0
 20 21  2  0
 21 22  1  0
 22 23  2  0
 14 24  2  0
 24  2  1  0
 13  7  1  0
 23 18  1  0
M  END
>  <zinc_id>  (360) 
ZINC000013472730

>  <ortholog_name>  (360) 
DRTS_PLAFK

>  <gene_name>  (360) 
DRTS_PLAFK

>  <affinity>  (360) 
8.92

>  <chembldocid>  (360) 
16871

>  <title>  (360) 
None

>  <reference.pubmed_id>  (360) 
11881993

>  <reference.doi>  (360) 
None

>  <reference.chembl_id>  (360) 
CHEMBL1135602

>  <reference.journal>  (360) 
J. Med. Chem.

>  <reference.year>  (360) 
2002

$$$$

     RDKit          3D

 24 26  0  0  0  0  0  0  0  0999 V2000
   -0.7019   -5.1477   -0.0740 N   0  0  0  0  0  0  0  0  0  0  0  0
   -0.9877   -3.7537   -0.0570 C   0  0  0  0  0  0  0  0  0  0  0  0
   -1.8094   -3.1800   -0.9509 N   0  0  0  0  0  0  0  0  0  0  0  0
   -2.0774   -1.8799   -0.9441 C   0  0  0  0  0  0  0  0  0  0  0  0
   -2.9418   -1.2463   -1.8911 N   0  0  0  0  0  0  0  0  0  0  0  0
   -1.5040   -1.0281    0.0148 C   0  0  0  0  0  0  0  0  0  0  0  0
   -1.9069    0.3924    0.0132 C   0  0  0  0  0  0  0  0  0  0  0  0
   -2.7693    0.7756    1.0488 C   0  0  0  0  0  0  0  0  0  0  0  0
   -3.2507    2.0444    1.1621 C   0  0  0  0  0  0  0  0  0  0  0  0
   -2.8916    2.9884    0.2434 C   0  0  0  0  0  0  0  0  0  0  0  0
   -2.0361    2.6169   -0.7879 C   0  0  0  0  0  0  0  0  0  0  0  0
   -1.6020    3.8648   -1.9371 Cl  0  0  0  0  0  0  0  0  0  0  0  0
   -1.5495    1.3214   -0.8981 C   0  0  0  0  0  0  0  0  0  0  0  0
   -0.6662   -1.6023    0.9257 C   0  0  0  0  0  0  0  0  0  0  0  0
    0.0329   -0.7765    1.9284 C   0  0  0  0  0  0  0  0  0  0  0  0
    1.3448   -0.2914    1.4508 C   0  0  0  0  0  0  0  0  0  0  0  0
    1.3610    0.5332    0.2417 C   0  0  0  0  0  0  0  0  0  0  0  0
    2.7648    0.8837   -0.0770 C   0  0  0  0  0  0  0  0  0  0  0  0
    3.3062    2.0328    0.4479 C   0  0  0  0  0  0  0  0  0  0  0  0
    4.5898    2.3750    0.1712 C   0  0  0  0  0  0  0  0  0  0  0  0
    5.3632    1.5562   -0.6496 C   0  0  0  0  0  0  0  0  0  0  0  0
    4.8374    0.3985   -1.1848 C   0  0  0  0  0  0  0  0  0  0  0  0
    3.5325    0.0698   -0.8924 C   0  0  0  0  0  0  0  0  0  0  0  0
   -0.4382   -2.9471    0.8575 N   0  0  0  0  0  0  0  0  0  0  0  0
  1  2  1  0
  2  3  2  0
  3  4  1  0
  4  5  1  0
  4  6  2  0
  6  7  1  0
  7  8  2  0
  8  9  1  0
  9 10  2  0
 10 11  1  0
 11 12  1  0
 11 13  2  0
  6 14  1  0
 14 15  1  0
 15 16  1  0
 16 17  1  0
 17 18  1  0
 18 19  2  0
 19 20  1  0
 20 21  2  0
 21 22  1  0
 22 23  2  0
 14 24  2  0
 24  2  1  0
 13  7  1  0
 23 18  1  0
M  END
>  <zinc_id>  (361) 
ZINC000013472730

>  <ortholog_name>  (361) 
DRTS_PLAFK

>  <gene_name>  (361) 
DRTS_PLAFK

>  <affinity>  (361) 
8.92

>  <chembldocid>  (361) 
17662

>  <title>  (361) 
None

>  <reference.pubmed_id>  (361) 
14736247

>  <reference.doi>  (361) 
None

>  <reference.chembl_id>  (361) 
CHEMBL1138835

>  <reference.journal>  (361) 
J. Med. Chem.

>  <reference.year>  (361) 
2004

$$$$

     RDKit          3D

 24 26  0  0  0  0  0  0  0  0999 V2000
   -0.7019   -5.1477   -0.0740 N   0  0  0  0  0  0  0  0  0  0  0  0
   -0.9877   -3.7537   -0.0570 C   0  0  0  0  0  0  0  0  0  0  0  0
   -1.8094   -3.1800   -0.9509 N   0  0  0  0  0  0  0  0  0  0  0  0
   -2.0774   -1.8799   -0.9441 C   0  0  0  0  0  0  0  0  0  0  0  0
   -2.9418   -1.2463   -1.8911 N   0  0  0  0  0  0  0  0  0  0  0  0
   -1.5040   -1.0281    0.0148 C   0  0  0  0  0  0  0  0  0  0  0  0
   -1.9069    0.3924    0.0132 C   0  0  0  0  0  0  0  0  0  0  0  0
   -2.7693    0.7756    1.0488 C   0  0  0  0  0  0  0  0  0  0  0  0
   -3.2507    2.0444    1.1621 C   0  0  0  0  0  0  0  0  0  0  0  0
   -2.8916    2.9884    0.2434 C   0  0  0  0  0  0  0  0  0  0  0  0
   -2.0361    2.6169   -0.7879 C   0  0  0  0  0  0  0  0  0  0  0  0
   -1.6020    3.8648   -1.9371 Cl  0  0  0  0  0  0  0  0  0  0  0  0
   -1.5495    1.3214   -0.8981 C   0  0  0  0  0  0  0  0  0  0  0  0
   -0.6662   -1.6023    0.9257 C   0  0  0  0  0  0  0  0  0  0  0  0
    0.0329   -0.7765    1.9284 C   0  0  0  0  0  0  0  0  0  0  0  0
    1.3448   -0.2914    1.4508 C   0  0  0  0  0  0  0  0  0  0  0  0
    1.3610    0.5332    0.2417 C   0  0  0  0  0  0  0  0  0  0  0  0
    2.7648    0.8837   -0.0770 C   0  0  0  0  0  0  0  0  0  0  0  0
    3.3062    2.0328    0.4479 C   0  0  0  0  0  0  0  0  0  0  0  0
    4.5898    2.3750    0.1712 C   0  0  0  0  0  0  0  0  0  0  0  0
    5.3632    1.5562   -0.6496 C   0  0  0  0  0  0  0  0  0  0  0  0
    4.8374    0.3985   -1.1848 C   0  0  0  0  0  0  0  0  0  0  0  0
    3.5325    0.0698   -0.8924 C   0  0  0  0  0  0  0  0  0  0  0  0
   -0.4382   -2.9471    0.8575 N   0  0  0  0  0  0  0  0  0  0  0  0
  1  2  1  0
  2  3  2  0
  3  4  1  0
  4  5  1  0
  4  6  2  0
  6  7  1  0
  7  8  2  0
  8  9  1  0
  9 10  2  0
 10 11  1  0
 11 12  1  0
 11 13  2  0
  6 14  1  0
 14 15  1  0
 15 16  1  0
 16 17  1  0
 17 18  1  0
 18 19  2  0
 19 20  1  0
 20 21  2  0
 21 22  1  0
 22 23  2  0
 14 24  2  0
 24  2  1  0
 13  7  1  0
 23 18  1  0
M  END
>  <zinc_id>  (362) 
ZINC000013472730

>  <ortholog_name>  (362) 
DRTS_PLAFK

>  <gene_name>  (362) 
DRTS_PLAFK

>  <affinity>  (362) 
8.70

>  <chembldocid>  (362) 
17662

>  <title>  (362) 
None

>  <reference.pubmed_id>  (362) 
14736247

>  <reference.doi>  (362) 
None

>  <reference.chembl_id>  (362) 
CHEMBL1138835

>  <reference.journal>  (362) 
J. Med. Chem.

>  <reference.year>  (362) 
2004

$$$$

     RDKit          3D

 24 26  0  0  0  0  0  0  0  0999 V2000
   -0.7019   -5.1477   -0.0740 N   0  0  0  0  0  0  0  0  0  0  0  0
   -0.9877   -3.7537   -0.0570 C   0  0  0  0  0  0  0  0  0  0  0  0
   -1.8094   -3.1800   -0.9509 N   0  0  0  0  0  0  0  0  0  0  0  0
   -2.0774   -1.8799   -0.9441 C   0  0  0  0  0  0  0  0  0  0  0  0
   -2.9418   -1.2463   -1.8911 N   0  0  0  0  0  0  0  0  0  0  0  0
   -1.5040   -1.0281    0.0148 C   0  0  0  0  0  0  0  0  0  0  0  0
   -1.9069    0.3924    0.0132 C   0  0  0  0  0  0  0  0  0  0  0  0
   -2.7693    0.7756    1.0488 C   0  0  0  0  0  0  0  0  0  0  0  0
   -3.2507    2.0444    1.1621 C   0  0  0  0  0  0  0  0  0  0  0  0
   -2.8916    2.9884    0.2434 C   0  0  0  0  0  0  0  0  0  0  0  0
   -2.0361    2.6169   -0.7879 C   0  0  0  0  0  0  0  0  0  0  0  0
   -1.6020    3.8648   -1.9371 Cl  0  0  0  0  0  0  0  0  0  0  0  0
   -1.5495    1.3214   -0.8981 C   0  0  0  0  0  0  0  0  0  0  0  0
   -0.6662   -1.6023    0.9257 C   0  0  0  0  0  0  0  0  0  0  0  0
    0.0329   -0.7765    1.9284 C   0  0  0  0  0  0  0  0  0  0  0  0
    1.3448   -0.2914    1.4508 C   0  0  0  0  0  0  0  0  0  0  0  0
    1.3610    0.5332    0.2417 C   0  0  0  0  0  0  0  0  0  0  0  0
    2.7648    0.8837   -0.0770 C   0  0  0  0  0  0  0  0  0  0  0  0
    3.3062    2.0328    0.4479 C   0  0  0  0  0  0  0  0  0  0  0  0
    4.5898    2.3750    0.1712 C   0  0  0  0  0  0  0  0  0  0  0  0
    5.3632    1.5562   -0.6496 C   0  0  0  0  0  0  0  0  0  0  0  0
    4.8374    0.3985   -1.1848 C   0  0  0  0  0  0  0  0  0  0  0  0
    3.5325    0.0698   -0.8924 C   0  0  0  0  0  0  0  0  0  0  0  0
   -0.4382   -2.9471    0.8575 N   0  0  0  0  0  0  0  0  0  0  0  0
  1  2  1  0
  2  3  2  0
  3  4  1  0
  4  5  1  0
  4  6  2  0
  6  7  1  0
  7  8  2  0
  8  9  1  0
  9 10  2  0
 10 11  1  0
 11 12  1  0
 11 13  2  0
  6 14  1  0
 14 15  1  0
 15 16  1  0
 16 17  1  0
 17 18  1  0
 18 19  2  0
 19 20  1  0
 20 21  2  0
 21 22  1  0
 22 23  2  0
 14 24  2  0
 24  2  1  0
 13  7  1  0
 23 18  1  0
M  END
>  <zinc_id>  (363) 
ZINC000013472730

>  <ortholog_name>  (363) 
DRTS_PLAFK

>  <gene_name>  (363) 
DRTS_PLAFK

>  <affinity>  (363) 
8.66

>  <chembldocid>  (363) 
17662

>  <title>  (363) 
None

>  <reference.pubmed_id>  (363) 
14736247

>  <reference.doi>  (363) 
None

>  <reference.chembl_id>  (363) 
CHEMBL1138835

>  <reference.journal>  (363) 
J. Med. Chem.

>  <reference.year>  (363) 
2004

$$$$

     RDKit          3D

 24 26  0  0  0  0  0  0  0  0999 V2000
   -0.7019   -5.1477   -0.0740 N   0  0  0  0  0  0  0  0  0  0  0  0
   -0.9877   -3.7537   -0.0570 C   0  0  0  0  0  0  0  0  0  0  0  0
   -1.8094   -3.1800   -0.9509 N   0  0  0  0  0  0  0  0  0  0  0  0
   -2.0774   -1.8799   -0.9441 C   0  0  0  0  0  0  0  0  0  0  0  0
   -2.9418   -1.2463   -1.8911 N   0  0  0  0  0  0  0  0  0  0  0  0
   -1.5040   -1.0281    0.0148 C   0  0  0  0  0  0  0  0  0  0  0  0
   -1.9069    0.3924    0.0132 C   0  0  0  0  0  0  0  0  0  0  0  0
   -2.7693    0.7756    1.0488 C   0  0  0  0  0  0  0  0  0  0  0  0
   -3.2507    2.0444    1.1621 C   0  0  0  0  0  0  0  0  0  0  0  0
   -2.8916    2.9884    0.2434 C   0  0  0  0  0  0  0  0  0  0  0  0
   -2.0361    2.6169   -0.7879 C   0  0  0  0  0  0  0  0  0  0  0  0
   -1.6020    3.8648   -1.9371 Cl  0  0  0  0  0  0  0  0  0  0  0  0
   -1.5495    1.3214   -0.8981 C   0  0  0  0  0  0  0  0  0  0  0  0
   -0.6662   -1.6023    0.9257 C   0  0  0  0  0  0  0  0  0  0  0  0
    0.0329   -0.7765    1.9284 C   0  0  0  0  0  0  0  0  0  0  0  0
    1.3448   -0.2914    1.4508 C   0  0  0  0  0  0  0  0  0  0  0  0
    1.3610    0.5332    0.2417 C   0  0  0  0  0  0  0  0  0  0  0  0
    2.7648    0.8837   -0.0770 C   0  0  0  0  0  0  0  0  0  0  0  0
    3.3062    2.0328    0.4479 C   0  0  0  0  0  0  0  0  0  0  0  0
    4.5898    2.3750    0.1712 C   0  0  0  0  0  0  0  0  0  0  0  0
    5.3632    1.5562   -0.6496 C   0  0  0  0  0  0  0  0  0  0  0  0
    4.8374    0.3985   -1.1848 C   0  0  0  0  0  0  0  0  0  0  0  0
    3.5325    0.0698   -0.8924 C   0  0  0  0  0  0  0  0  0  0  0  0
   -0.4382   -2.9471    0.8575 N   0  0  0  0  0  0  0  0  0  0  0  0
  1  2  1  0
  2  3  2  0
  3  4  1  0
  4  5  1  0
  4  6  2  0
  6  7  1  0
  7  8  2  0
  8  9  1  0
  9 10  2  0
 10 11  1  0
 11 12  1  0
 11 13  2  0
  6 14  1  0
 14 15  1  0
 15 16  1  0
 16 17  1  0
 17 18  1  0
 18 19  2  0
 19 20  1  0
 20 21  2  0
 21 22  1  0
 22 23  2  0
 14 24  2  0
 24  2  1  0
 13  7  1  0
 23 18  1  0
M  END
>  <zinc_id>  (364) 
ZINC000013472730

>  <ortholog_name>  (364) 
DRTS_PLAFK

>  <gene_name>  (364) 
DRTS_PLAFK

>  <affinity>  (364) 
8.52

>  <chembldocid>  (364) 
16871

>  <title>  (364) 
None

>  <reference.pubmed_id>  (364) 
11881993

>  <reference.doi>  (364) 
None

>  <reference.chembl_id>  (364) 
CHEMBL1135602

>  <reference.journal>  (364) 
J. Med. Chem.

>  <reference.year>  (364) 
2002

$$$$

     RDKit          3D

 24 26  0  0  0  0  0  0  0  0999 V2000
   -0.7019   -5.1477   -0.0740 N   0  0  0  0  0  0  0  0  0  0  0  0
   -0.9877   -3.7537   -0.0570 C   0  0  0  0  0  0  0  0  0  0  0  0
   -1.8094   -3.1800   -0.9509 N   0  0  0  0  0  0  0  0  0  0  0  0
   -2.0774   -1.8799   -0.9441 C   0  0  0  0  0  0  0  0  0  0  0  0
   -2.9418   -1.2463   -1.8911 N   0  0  0  0  0  0  0  0  0  0  0  0
   -1.5040   -1.0281    0.0148 C   0  0  0  0  0  0  0  0  0  0  0  0
   -1.9069    0.3924    0.0132 C   0  0  0  0  0  0  0  0  0  0  0  0
   -2.7693    0.7756    1.0488 C   0  0  0  0  0  0  0  0  0  0  0  0
   -3.2507    2.0444    1.1621 C   0  0  0  0  0  0  0  0  0  0  0  0
   -2.8916    2.9884    0.2434 C   0  0  0  0  0  0  0  0  0  0  0  0
   -2.0361    2.6169   -0.7879 C   0  0  0  0  0  0  0  0  0  0  0  0
   -1.6020    3.8648   -1.9371 Cl  0  0  0  0  0  0  0  0  0  0  0  0
   -1.5495    1.3214   -0.8981 C   0  0  0  0  0  0  0  0  0  0  0  0
   -0.6662   -1.6023    0.9257 C   0  0  0  0  0  0  0  0  0  0  0  0
    0.0329   -0.7765    1.9284 C   0  0  0  0  0  0  0  0  0  0  0  0
    1.3448   -0.2914    1.4508 C   0  0  0  0  0  0  0  0  0  0  0  0
    1.3610    0.5332    0.2417 C   0  0  0  0  0  0  0  0  0  0  0  0
    2.7648    0.8837   -0.0770 C   0  0  0  0  0  0  0  0  0  0  0  0
    3.3062    2.0328    0.4479 C   0  0  0  0  0  0  0  0  0  0  0  0
    4.5898    2.3750    0.1712 C   0  0  0  0  0  0  0  0  0  0  0  0
    5.3632    1.5562   -0.6496 C   0  0  0  0  0  0  0  0  0  0  0  0
    4.8374    0.3985   -1.1848 C   0  0  0  0  0  0  0  0  0  0  0  0
    3.5325    0.0698   -0.8924 C   0  0  0  0  0  0  0  0  0  0  0  0
   -0.4382   -2.9471    0.8575 N   0  0  0  0  0  0  0  0  0  0  0  0
  1  2  1  0
  2  3  2  0
  3  4  1  0
  4  5  1  0
  4  6  2  0
  6  7  1  0
  7  8  2  0
  8  9  1  0
  9 10  2  0
 10 11  1  0
 11 12  1  0
 11 13  2  0
  6 14  1  0
 14 15  1  0
 15 16  1  0
 16 17  1  0
 17 18  1  0
 18 19  2  0
 19 20  1  0
 20 21  2  0
 21 22  1  0
 22 23  2  0
 14 24  2  0
 24  2  1  0
 13  7  1  0
 23 18  1  0
M  END
>  <zinc_id>  (365) 
ZINC000013472730

>  <ortholog_name>  (365) 
DRTS_PLAFK

>  <gene_name>  (365) 
DRTS_PLAFK

>  <affinity>  (365) 
5.52

>  <chembldocid>  (365) 
16871

>  <title>  (365) 
None

>  <reference.pubmed_id>  (365) 
11881993

>  <reference.doi>  (365) 
None

>  <reference.chembl_id>  (365) 
CHEMBL1135602

>  <reference.journal>  (365) 
J. Med. Chem.

>  <reference.year>  (365) 
2002

$$$$

     RDKit          3D

 24 26  0  0  0  0  0  0  0  0999 V2000
   -0.7019   -5.1477   -0.0740 N   0  0  0  0  0  0  0  0  0  0  0  0
   -0.9877   -3.7537   -0.0570 C   0  0  0  0  0  0  0  0  0  0  0  0
   -1.8094   -3.1800   -0.9509 N   0  0  0  0  0  0  0  0  0  0  0  0
   -2.0774   -1.8799   -0.9441 C   0  0  0  0  0  0  0  0  0  0  0  0
   -2.9418   -1.2463   -1.8911 N   0  0  0  0  0  0  0  0  0  0  0  0
   -1.5040   -1.0281    0.0148 C   0  0  0  0  0  0  0  0  0  0  0  0
   -1.9069    0.3924    0.0132 C   0  0  0  0  0  0  0  0  0  0  0  0
   -2.7693    0.7756    1.0488 C   0  0  0  0  0  0  0  0  0  0  0  0
   -3.2507    2.0444    1.1621 C   0  0  0  0  0  0  0  0  0  0  0  0
   -2.8916    2.9884    0.2434 C   0  0  0  0  0  0  0  0  0  0  0  0
   -2.0361    2.6169   -0.7879 C   0  0  0  0  0  0  0  0  0  0  0  0
   -1.6020    3.8648   -1.9371 Cl  0  0  0  0  0  0  0  0  0  0  0  0
   -1.5495    1.3214   -0.8981 C   0  0  0  0  0  0  0  0  0  0  0  0
   -0.6662   -1.6023    0.9257 C   0  0  0  0  0  0  0  0  0  0  0  0
    0.0329   -0.7765    1.9284 C   0  0  0  0  0  0  0  0  0  0  0  0
    1.3448   -0.2914    1.4508 C   0  0  0  0  0  0  0  0  0  0  0  0
    1.3610    0.5332    0.2417 C   0  0  0  0  0  0  0  0  0  0  0  0
    2.7648    0.8837   -0.0770 C   0  0  0  0  0  0  0  0  0  0  0  0
    3.3062    2.0328    0.4479 C   0  0  0  0  0  0  0  0  0  0  0  0
    4.5898    2.3750    0.1712 C   0  0  0  0  0  0  0  0  0  0  0  0
    5.3632    1.5562   -0.6496 C   0  0  0  0  0  0  0  0  0  0  0  0
    4.8374    0.3985   -1.1848 C   0  0  0  0  0  0  0  0  0  0  0  0
    3.5325    0.0698   -0.8924 C   0  0  0  0  0  0  0  0  0  0  0  0
   -0.4382   -2.9471    0.8575 N   0  0  0  0  0  0  0  0  0  0  0  0
  1  2  1  0
  2  3  2  0
  3  4  1  0
  4  5  1  0
  4  6  2  0
  6  7  1  0
  7  8  2  0
  8  9  1  0
  9 10  2  0
 10 11  1  0
 11 12  1  0
 11 13  2  0
  6 14  1  0
 14 15  1  0
 15 16  1  0
 16 17  1  0
 17 18  1  0
 18 19  2  0
 19 20  1  0
 20 21  2  0
 21 22  1  0
 22 23  2  0
 14 24  2  0
 24  2  1  0
 13  7  1  0
 23 18  1  0
M  END
>  <zinc_id>  (366) 
ZINC000013472730

>  <ortholog_name>  (366) 
DRTS_PLAFK

>  <gene_name>  (366) 
DRTS_PLAFK

>  <affinity>  (366) 
5.44

>  <chembldocid>  (366) 
17662

>  <title>  (366) 
None

>  <reference.pubmed_id>  (366) 
14736247

>  <reference.doi>  (366) 
None

>  <reference.chembl_id>  (366) 
CHEMBL1138835

>  <reference.journal>  (366) 
J. Med. Chem.

>  <reference.year>  (366) 
2004

$$$$

     RDKit          3D

 24 26  0  0  0  0  0  0  0  0999 V2000
   -0.7019   -5.1477   -0.0740 N   0  0  0  0  0  0  0  0  0  0  0  0
   -0.9877   -3.7537   -0.0570 C   0  0  0  0  0  0  0  0  0  0  0  0
   -1.8094   -3.1800   -0.9509 N   0  0  0  0  0  0  0  0  0  0  0  0
   -2.0774   -1.8799   -0.9441 C   0  0  0  0  0  0  0  0  0  0  0  0
   -2.9418   -1.2463   -1.8911 N   0  0  0  0  0  0  0  0  0  0  0  0
   -1.5040   -1.0281    0.0148 C   0  0  0  0  0  0  0  0  0  0  0  0
   -1.9069    0.3924    0.0132 C   0  0  0  0  0  0  0  0  0  0  0  0
   -2.7693    0.7756    1.0488 C   0  0  0  0  0  0  0  0  0  0  0  0
   -3.2507    2.0444    1.1621 C   0  0  0  0  0  0  0  0  0  0  0  0
   -2.8916    2.9884    0.2434 C   0  0  0  0  0  0  0  0  0  0  0  0
   -2.0361    2.6169   -0.7879 C   0  0  0  0  0  0  0  0  0  0  0  0
   -1.6020    3.8648   -1.9371 Cl  0  0  0  0  0  0  0  0  0  0  0  0
   -1.5495    1.3214   -0.8981 C   0  0  0  0  0  0  0  0  0  0  0  0
   -0.6662   -1.6023    0.9257 C   0  0  0  0  0  0  0  0  0  0  0  0
    0.0329   -0.7765    1.9284 C   0  0  0  0  0  0  0  0  0  0  0  0
    1.3448   -0.2914    1.4508 C   0  0  0  0  0  0  0  0  0  0  0  0
    1.3610    0.5332    0.2417 C   0  0  0  0  0  0  0  0  0  0  0  0
    2.7648    0.8837   -0.0770 C   0  0  0  0  0  0  0  0  0  0  0  0
    3.3062    2.0328    0.4479 C   0  0  0  0  0  0  0  0  0  0  0  0
    4.5898    2.3750    0.1712 C   0  0  0  0  0  0  0  0  0  0  0  0
    5.3632    1.5562   -0.6496 C   0  0  0  0  0  0  0  0  0  0  0  0
    4.8374    0.3985   -1.1848 C   0  0  0  0  0  0  0  0  0  0  0  0
    3.5325    0.0698   -0.8924 C   0  0  0  0  0  0  0  0  0  0  0  0
   -0.4382   -2.9471    0.8575 N   0  0  0  0  0  0  0  0  0  0  0  0
  1  2  1  0
  2  3  2  0
  3  4  1  0
  4  5  1  0
  4  6  2  0
  6  7  1  0
  7  8  2  0
  8  9  1  0
  9 10  2  0
 10 11  1  0
 11 12  1  0
 11 13  2  0
  6 14  1  0
 14 15  1  0
 15 16  1  0
 16 17  1  0
 17 18  1  0
 18 19  2  0
 19 20  1  0
 20 21  2  0
 21 22  1  0
 22 23  2  0
 14 24  2  0
 24  2  1  0
 13  7  1  0
 23 18  1  0
M  END
>  <zinc_id>  (367) 
ZINC000013472730

>  <ortholog_name>  (367) 
DRTS_PLAFK

>  <gene_name>  (367) 
DRTS_PLAFK

>  <affinity>  (367) 
8.38

>  <chembldocid>  (367) 
16871

>  <title>  (367) 
None

>  <reference.pubmed_id>  (367) 
11881993

>  <reference.doi>  (367) 
None

>  <reference.chembl_id>  (367) 
CHEMBL1135602

>  <reference.journal>  (367) 
J. Med. Chem.

>  <reference.year>  (367) 
2002

$$$$

     RDKit          3D

 24 26  0  0  0  0  0  0  0  0999 V2000
   -0.7019   -5.1477   -0.0740 N   0  0  0  0  0  0  0  0  0  0  0  0
   -0.9877   -3.7537   -0.0570 C   0  0  0  0  0  0  0  0  0  0  0  0
   -1.8094   -3.1800   -0.9509 N   0  0  0  0  0  0  0  0  0  0  0  0
   -2.0774   -1.8799   -0.9441 C   0  0  0  0  0  0  0  0  0  0  0  0
   -2.9418   -1.2463   -1.8911 N   0  0  0  0  0  0  0  0  0  0  0  0
   -1.5040   -1.0281    0.0148 C   0  0  0  0  0  0  0  0  0  0  0  0
   -1.9069    0.3924    0.0132 C   0  0  0  0  0  0  0  0  0  0  0  0
   -2.7693    0.7756    1.0488 C   0  0  0  0  0  0  0  0  0  0  0  0
   -3.2507    2.0444    1.1621 C   0  0  0  0  0  0  0  0  0  0  0  0
   -2.8916    2.9884    0.2434 C   0  0  0  0  0  0  0  0  0  0  0  0
   -2.0361    2.6169   -0.7879 C   0  0  0  0  0  0  0  0  0  0  0  0
   -1.6020    3.8648   -1.9371 Cl  0  0  0  0  0  0  0  0  0  0  0  0
   -1.5495    1.3214   -0.8981 C   0  0  0  0  0  0  0  0  0  0  0  0
   -0.6662   -1.6023    0.9257 C   0  0  0  0  0  0  0  0  0  0  0  0
    0.0329   -0.7765    1.9284 C   0  0  0  0  0  0  0  0  0  0  0  0
    1.3448   -0.2914    1.4508 C   0  0  0  0  0  0  0  0  0  0  0  0
    1.3610    0.5332    0.2417 C   0  0  0  0  0  0  0  0  0  0  0  0
    2.7648    0.8837   -0.0770 C   0  0  0  0  0  0  0  0  0  0  0  0
    3.3062    2.0328    0.4479 C   0  0  0  0  0  0  0  0  0  0  0  0
    4.5898    2.3750    0.1712 C   0  0  0  0  0  0  0  0  0  0  0  0
    5.3632    1.5562   -0.6496 C   0  0  0  0  0  0  0  0  0  0  0  0
    4.8374    0.3985   -1.1848 C   0  0  0  0  0  0  0  0  0  0  0  0
    3.5325    0.0698   -0.8924 C   0  0  0  0  0  0  0  0  0  0  0  0
   -0.4382   -2.9471    0.8575 N   0  0  0  0  0  0  0  0  0  0  0  0
  1  2  1  0
  2  3  2  0
  3  4  1  0
  4  5  1  0
  4  6  2  0
  6  7  1  0
  7  8  2  0
  8  9  1  0
  9 10  2  0
 10 11  1  0
 11 12  1  0
 11 13  2  0
  6 14  1  0
 14 15  1  0
 15 16  1  0
 16 17  1  0
 17 18  1  0
 18 19  2  0
 19 20  1  0
 20 21  2  0
 21 22  1  0
 22 23  2  0
 14 24  2  0
 24  2  1  0
 13  7  1  0
 23 18  1  0
M  END
>  <zinc_id>  (368) 
ZINC000013472730

>  <ortholog_name>  (368) 
DRTS_PLAFK

>  <gene_name>  (368) 
DRTS_PLAFK

>  <affinity>  (368) 
7.38

>  <chembldocid>  (368) 
21047

>  <title>  (368) 
None

>  <reference.pubmed_id>  (368) 
15293997

>  <reference.doi>  (368) 
None

>  <reference.chembl_id>  (368) 
CHEMBL1138679

>  <reference.journal>  (368) 
J. Med. Chem.

>  <reference.year>  (368) 
2004

$$$$

     RDKit          3D

 24 26  0  0  0  0  0  0  0  0999 V2000
   -0.7019   -5.1477   -0.0740 N   0  0  0  0  0  0  0  0  0  0  0  0
   -0.9877   -3.7537   -0.0570 C   0  0  0  0  0  0  0  0  0  0  0  0
   -1.8094   -3.1800   -0.9509 N   0  0  0  0  0  0  0  0  0  0  0  0
   -2.0774   -1.8799   -0.9441 C   0  0  0  0  0  0  0  0  0  0  0  0
   -2.9418   -1.2463   -1.8911 N   0  0  0  0  0  0  0  0  0  0  0  0
   -1.5040   -1.0281    0.0148 C   0  0  0  0  0  0  0  0  0  0  0  0
   -1.9069    0.3924    0.0132 C   0  0  0  0  0  0  0  0  0  0  0  0
   -2.7693    0.7756    1.0488 C   0  0  0  0  0  0  0  0  0  0  0  0
   -3.2507    2.0444    1.1621 C   0  0  0  0  0  0  0  0  0  0  0  0
   -2.8916    2.9884    0.2434 C   0  0  0  0  0  0  0  0  0  0  0  0
   -2.0361    2.6169   -0.7879 C   0  0  0  0  0  0  0  0  0  0  0  0
   -1.6020    3.8648   -1.9371 Cl  0  0  0  0  0  0  0  0  0  0  0  0
   -1.5495    1.3214   -0.8981 C   0  0  0  0  0  0  0  0  0  0  0  0
   -0.6662   -1.6023    0.9257 C   0  0  0  0  0  0  0  0  0  0  0  0
    0.0329   -0.7765    1.9284 C   0  0  0  0  0  0  0  0  0  0  0  0
    1.3448   -0.2914    1.4508 C   0  0  0  0  0  0  0  0  0  0  0  0
    1.3610    0.5332    0.2417 C   0  0  0  0  0  0  0  0  0  0  0  0
    2.7648    0.8837   -0.0770 C   0  0  0  0  0  0  0  0  0  0  0  0
    3.3062    2.0328    0.4479 C   0  0  0  0  0  0  0  0  0  0  0  0
    4.5898    2.3750    0.1712 C   0  0  0  0  0  0  0  0  0  0  0  0
    5.3632    1.5562   -0.6496 C   0  0  0  0  0  0  0  0  0  0  0  0
    4.8374    0.3985   -1.1848 C   0  0  0  0  0  0  0  0  0  0  0  0
    3.5325    0.0698   -0.8924 C   0  0  0  0  0  0  0  0  0  0  0  0
   -0.4382   -2.9471    0.8575 N   0  0  0  0  0  0  0  0  0  0  0  0
  1  2  1  0
  2  3  2  0
  3  4  1  0
  4  5  1  0
  4  6  2  0
  6  7  1  0
  7  8  2  0
  8  9  1  0
  9 10  2  0
 10 11  1  0
 11 12  1  0
 11 13  2  0
  6 14  1  0
 14 15  1  0
 15 16  1  0
 16 17  1  0
 17 18  1  0
 18 19  2  0
 19 20  1  0
 20 21  2  0
 21 22  1  0
 22 23  2  0
 14 24  2  0
 24  2  1  0
 13  7  1  0
 23 18  1  0
M  END
>  <zinc_id>  (369) 
ZINC000013472730

>  <ortholog_name>  (369) 
DRTS_PLAFK

>  <gene_name>  (369) 
DRTS_PLAFK

>  <affinity>  (369) 
5.37

>  <chembldocid>  (369) 
17662

>  <title>  (369) 
None

>  <reference.pubmed_id>  (369) 
14736247

>  <reference.doi>  (369) 
None

>  <reference.chembl_id>  (369) 
CHEMBL1138835

>  <reference.journal>  (369) 
J. Med. Chem.

>  <reference.year>  (369) 
2004

$$$$

     RDKit          3D

 24 26  0  0  0  0  0  0  0  0999 V2000
   -0.7019   -5.1477   -0.0740 N   0  0  0  0  0  0  0  0  0  0  0  0
   -0.9877   -3.7537   -0.0570 C   0  0  0  0  0  0  0  0  0  0  0  0
   -1.8094   -3.1800   -0.9509 N   0  0  0  0  0  0  0  0  0  0  0  0
   -2.0774   -1.8799   -0.9441 C   0  0  0  0  0  0  0  0  0  0  0  0
   -2.9418   -1.2463   -1.8911 N   0  0  0  0  0  0  0  0  0  0  0  0
   -1.5040   -1.0281    0.0148 C   0  0  0  0  0  0  0  0  0  0  0  0
   -1.9069    0.3924    0.0132 C   0  0  0  0  0  0  0  0  0  0  0  0
   -2.7693    0.7756    1.0488 C   0  0  0  0  0  0  0  0  0  0  0  0
   -3.2507    2.0444    1.1621 C   0  0  0  0  0  0  0  0  0  0  0  0
   -2.8916    2.9884    0.2434 C   0  0  0  0  0  0  0  0  0  0  0  0
   -2.0361    2.6169   -0.7879 C   0  0  0  0  0  0  0  0  0  0  0  0
   -1.6020    3.8648   -1.9371 Cl  0  0  0  0  0  0  0  0  0  0  0  0
   -1.5495    1.3214   -0.8981 C   0  0  0  0  0  0  0  0  0  0  0  0
   -0.6662   -1.6023    0.9257 C   0  0  0  0  0  0  0  0  0  0  0  0
    0.0329   -0.7765    1.9284 C   0  0  0  0  0  0  0  0  0  0  0  0
    1.3448   -0.2914    1.4508 C   0  0  0  0  0  0  0  0  0  0  0  0
    1.3610    0.5332    0.2417 C   0  0  0  0  0  0  0  0  0  0  0  0
    2.7648    0.8837   -0.0770 C   0  0  0  0  0  0  0  0  0  0  0  0
    3.3062    2.0328    0.4479 C   0  0  0  0  0  0  0  0  0  0  0  0
    4.5898    2.3750    0.1712 C   0  0  0  0  0  0  0  0  0  0  0  0
    5.3632    1.5562   -0.6496 C   0  0  0  0  0  0  0  0  0  0  0  0
    4.8374    0.3985   -1.1848 C   0  0  0  0  0  0  0  0  0  0  0  0
    3.5325    0.0698   -0.8924 C   0  0  0  0  0  0  0  0  0  0  0  0
   -0.4382   -2.9471    0.8575 N   0  0  0  0  0  0  0  0  0  0  0  0
  1  2  1  0
  2  3  2  0
  3  4  1  0
  4  5  1  0
  4  6  2  0
  6  7  1  0
  7  8  2  0
  8  9  1  0
  9 10  2  0
 10 11  1  0
 11 12  1  0
 11 13  2  0
  6 14  1  0
 14 15  1  0
 15 16  1  0
 16 17  1  0
 17 18  1  0
 18 19  2  0
 19 20  1  0
 20 21  2  0
 21 22  1  0
 22 23  2  0
 14 24  2  0
 24  2  1  0
 13  7  1  0
 23 18  1  0
M  END
>  <zinc_id>  (370) 
ZINC000013472730

>  <ortholog_name>  (370) 
DRTS_PLAFK

>  <gene_name>  (370) 
DRTS_PLAFK

>  <affinity>  (370) 
5.24

>  <chembldocid>  (370) 
17662

>  <title>  (370) 
None

>  <reference.pubmed_id>  (370) 
14736247

>  <reference.doi>  (370) 
None

>  <reference.chembl_id>  (370) 
CHEMBL1138835

>  <reference.journal>  (370) 
J. Med. Chem.

>  <reference.year>  (370) 
2004

$$$$

     RDKit          3D

 24 26  0  0  0  0  0  0  0  0999 V2000
   -0.7019   -5.1477   -0.0740 N   0  0  0  0  0  0  0  0  0  0  0  0
   -0.9877   -3.7537   -0.0570 C   0  0  0  0  0  0  0  0  0  0  0  0
   -1.8094   -3.1800   -0.9509 N   0  0  0  0  0  0  0  0  0  0  0  0
   -2.0774   -1.8799   -0.9441 C   0  0  0  0  0  0  0  0  0  0  0  0
   -2.9418   -1.2463   -1.8911 N   0  0  0  0  0  0  0  0  0  0  0  0
   -1.5040   -1.0281    0.0148 C   0  0  0  0  0  0  0  0  0  0  0  0
   -1.9069    0.3924    0.0132 C   0  0  0  0  0  0  0  0  0  0  0  0
   -2.7693    0.7756    1.0488 C   0  0  0  0  0  0  0  0  0  0  0  0
   -3.2507    2.0444    1.1621 C   0  0  0  0  0  0  0  0  0  0  0  0
   -2.8916    2.9884    0.2434 C   0  0  0  0  0  0  0  0  0  0  0  0
   -2.0361    2.6169   -0.7879 C   0  0  0  0  0  0  0  0  0  0  0  0
   -1.6020    3.8648   -1.9371 Cl  0  0  0  0  0  0  0  0  0  0  0  0
   -1.5495    1.3214   -0.8981 C   0  0  0  0  0  0  0  0  0  0  0  0
   -0.6662   -1.6023    0.9257 C   0  0  0  0  0  0  0  0  0  0  0  0
    0.0329   -0.7765    1.9284 C   0  0  0  0  0  0  0  0  0  0  0  0
    1.3448   -0.2914    1.4508 C   0  0  0  0  0  0  0  0  0  0  0  0
    1.3610    0.5332    0.2417 C   0  0  0  0  0  0  0  0  0  0  0  0
    2.7648    0.8837   -0.0770 C   0  0  0  0  0  0  0  0  0  0  0  0
    3.3062    2.0328    0.4479 C   0  0  0  0  0  0  0  0  0  0  0  0
    4.5898    2.3750    0.1712 C   0  0  0  0  0  0  0  0  0  0  0  0
    5.3632    1.5562   -0.6496 C   0  0  0  0  0  0  0  0  0  0  0  0
    4.8374    0.3985   -1.1848 C   0  0  0  0  0  0  0  0  0  0  0  0
    3.5325    0.0698   -0.8924 C   0  0  0  0  0  0  0  0  0  0  0  0
   -0.4382   -2.9471    0.8575 N   0  0  0  0  0  0  0  0  0  0  0  0
  1  2  1  0
  2  3  2  0
  3  4  1  0
  4  5  1  0
  4  6  2  0
  6  7  1  0
  7  8  2  0
  8  9  1  0
  9 10  2  0
 10 11  1  0
 11 12  1  0
 11 13  2  0
  6 14  1  0
 14 15  1  0
 15 16  1  0
 16 17  1  0
 17 18  1  0
 18 19  2  0
 19 20  1  0
 20 21  2  0
 21 22  1  0
 22 23  2  0
 14 24  2  0
 24  2  1  0
 13  7  1  0
 23 18  1  0
M  END
>  <zinc_id>  (371) 
ZINC000013472730

>  <ortholog_name>  (371) 
DRTS_PLAFK

>  <gene_name>  (371) 
DRTS_PLAFK

>  <affinity>  (371) 
6.17

>  <chembldocid>  (371) 
17662

>  <title>  (371) 
None

>  <reference.pubmed_id>  (371) 
14736247

>  <reference.doi>  (371) 
None

>  <reference.chembl_id>  (371) 
CHEMBL1138835

>  <reference.journal>  (371) 
J. Med. Chem.

>  <reference.year>  (371) 
2004

$$$$

     RDKit          3D

 26 28  0  0  0  0  0  0  0  0999 V2000
    7.1243   -0.4267   -1.3576 C   0  0  0  0  0  0  0  0  0  0  0  0
    5.9376   -0.8188   -2.0236 O   0  0  0  0  0  0  0  0  0  0  0  0
    4.7757   -0.1251   -1.7258 C   0  0  0  0  0  0  0  0  0  0  0  0
    3.5905   -0.4811   -2.3579 C   0  0  0  0  0  0  0  0  0  0  0  0
    2.4183    0.2150   -2.0591 C   0  0  0  0  0  0  0  0  0  0  0  0
    2.3901    1.2427   -1.1624 C   0  0  0  0  0  0  0  0  0  0  0  0
    1.1340    1.9977   -0.8347 C   0  0  0  0  0  0  0  0  0  0  0  0
    0.4232    1.3194    0.3426 C   0  0  0  0  0  0  0  0  0  0  0  0
    0.1140   -0.0817   -0.0859 C   0  0  0  0  0  0  0  0  0  0  0  0
   -0.5773   -0.8221    0.9803 C   0  0  0  0  0  0  0  0  0  0  0  0
    0.0753   -1.7390    1.7428 N   0  0  0  0  0  0  0  0  0  0  0  0
   -0.5164   -2.4396    2.7256 C   0  0  0  0  0  0  0  0  0  0  0  0
    0.2208   -3.3899    3.4952 N   0  0  0  0  0  0  0  0  0  0  0  0
   -1.8250   -2.2045    2.9477 N   0  0  0  0  0  0  0  0  0  0  0  0
   -2.5195   -1.3105    2.2252 C   0  0  0  0  0  0  0  0  0  0  0  0
   -3.9002   -1.0697    2.4667 N   0  0  0  0  0  0  0  0  0  0  0  0
   -1.9152   -0.5856    1.2120 C   0  0  0  0  0  0  0  0  0  0  0  0
   -2.6428    0.3942    0.4141 C   0  0  0  0  0  0  0  0  0  0  0  0
   -2.6345    1.7513    0.6603 C   0  0  0  0  0  0  0  0  0  0  0  0
   -3.3327    2.6611   -0.1155 C   0  0  0  0  0  0  0  0  0  0  0  0
   -4.0810    2.2292   -1.1905 C   0  0  0  0  0  0  0  0  0  0  0  0
   -4.1007    0.8745   -1.4512 C   0  0  0  0  0  0  0  0  0  0  0  0
   -5.0539    0.3247   -2.8179 Cl  0  0  0  0  0  0  0  0  0  0  0  0
   -3.4053   -0.0329   -0.6784 C   0  0  0  0  0  0  0  0  0  0  0  0
    3.5570    1.6035   -0.5317 C   0  0  0  0  0  0  0  0  0  0  0  0
    4.7435    0.9137   -0.8205 C   0  0  0  0  0  0  0  0  0  0  0  0
  1  2  1  0
  2  3  1  0
  3  4  2  0
  4  5  1  0
  5  6  2  0
  6  7  1  0
  7  8  1  0
  8  9  1  0
  9 10  1  0
 10 11  2  0
 11 12  1  0
 12 13  1  0
 12 14  2  0
 14 15  1  0
 15 16  1  0
 15 17  2  0
 17 18  1  0
 18 19  2  0
 19 20  1  0
 20 21  2  0
 21 22  1  0
 22 23  1  0
 22 24  2  0
  6 25  1  0
 25 26  2  0
 26  3  1  0
 17 10  1  0
 24 18  1  0
M  END
>  <zinc_id>  (372) 
ZINC000013472731

>  <ortholog_name>  (372) 
DRTS_PLAFK

>  <gene_name>  (372) 
DRTS_PLAFK

>  <affinity>  (372) 
8.89

>  <chembldocid>  (372) 
17662

>  <title>  (372) 
None

>  <reference.pubmed_id>  (372) 
14736247

>  <reference.doi>  (372) 
None

>  <reference.chembl_id>  (372) 
CHEMBL1138835

>  <reference.journal>  (372) 
J. Med. Chem.

>  <reference.year>  (372) 
2004

$$$$

     RDKit          3D

 26 28  0  0  0  0  0  0  0  0999 V2000
    7.1243   -0.4267   -1.3576 C   0  0  0  0  0  0  0  0  0  0  0  0
    5.9376   -0.8188   -2.0236 O   0  0  0  0  0  0  0  0  0  0  0  0
    4.7757   -0.1251   -1.7258 C   0  0  0  0  0  0  0  0  0  0  0  0
    3.5905   -0.4811   -2.3579 C   0  0  0  0  0  0  0  0  0  0  0  0
    2.4183    0.2150   -2.0591 C   0  0  0  0  0  0  0  0  0  0  0  0
    2.3901    1.2427   -1.1624 C   0  0  0  0  0  0  0  0  0  0  0  0
    1.1340    1.9977   -0.8347 C   0  0  0  0  0  0  0  0  0  0  0  0
    0.4232    1.3194    0.3426 C   0  0  0  0  0  0  0  0  0  0  0  0
    0.1140   -0.0817   -0.0859 C   0  0  0  0  0  0  0  0  0  0  0  0
   -0.5773   -0.8221    0.9803 C   0  0  0  0  0  0  0  0  0  0  0  0
    0.0753   -1.7390    1.7428 N   0  0  0  0  0  0  0  0  0  0  0  0
   -0.5164   -2.4396    2.7256 C   0  0  0  0  0  0  0  0  0  0  0  0
    0.2208   -3.3899    3.4952 N   0  0  0  0  0  0  0  0  0  0  0  0
   -1.8250   -2.2045    2.9477 N   0  0  0  0  0  0  0  0  0  0  0  0
   -2.5195   -1.3105    2.2252 C   0  0  0  0  0  0  0  0  0  0  0  0
   -3.9002   -1.0697    2.4667 N   0  0  0  0  0  0  0  0  0  0  0  0
   -1.9152   -0.5856    1.2120 C   0  0  0  0  0  0  0  0  0  0  0  0
   -2.6428    0.3942    0.4141 C   0  0  0  0  0  0  0  0  0  0  0  0
   -2.6345    1.7513    0.6603 C   0  0  0  0  0  0  0  0  0  0  0  0
   -3.3327    2.6611   -0.1155 C   0  0  0  0  0  0  0  0  0  0  0  0
   -4.0810    2.2292   -1.1905 C   0  0  0  0  0  0  0  0  0  0  0  0
   -4.1007    0.8745   -1.4512 C   0  0  0  0  0  0  0  0  0  0  0  0
   -5.0539    0.3247   -2.8179 Cl  0  0  0  0  0  0  0  0  0  0  0  0
   -3.4053   -0.0329   -0.6784 C   0  0  0  0  0  0  0  0  0  0  0  0
    3.5570    1.6035   -0.5317 C   0  0  0  0  0  0  0  0  0  0  0  0
    4.7435    0.9137   -0.8205 C   0  0  0  0  0  0  0  0  0  0  0  0
  1  2  1  0
  2  3  1  0
  3  4  2  0
  4  5  1  0
  5  6  2  0
  6  7  1  0
  7  8  1  0
  8  9  1  0
  9 10  1  0
 10 11  2  0
 11 12  1  0
 12 13  1  0
 12 14  2  0
 14 15  1  0
 15 16  1  0
 15 17  2  0
 17 18  1  0
 18 19  2  0
 19 20  1  0
 20 21  2  0
 21 22  1  0
 22 23  1  0
 22 24  2  0
  6 25  1  0
 25 26  2  0
 26  3  1  0
 17 10  1  0
 24 18  1  0
M  END
>  <zinc_id>  (373) 
ZINC000013472731

>  <ortholog_name>  (373) 
DRTS_PLAFK

>  <gene_name>  (373) 
DRTS_PLAFK

>  <affinity>  (373) 
7.96

>  <chembldocid>  (373) 
21047

>  <title>  (373) 
None

>  <reference.pubmed_id>  (373) 
15293997

>  <reference.doi>  (373) 
None

>  <reference.chembl_id>  (373) 
CHEMBL1138679

>  <reference.journal>  (373) 
J. Med. Chem.

>  <reference.year>  (373) 
2004

$$$$

     RDKit          3D

 26 28  0  0  0  0  0  0  0  0999 V2000
    7.1243   -0.4267   -1.3576 C   0  0  0  0  0  0  0  0  0  0  0  0
    5.9376   -0.8188   -2.0236 O   0  0  0  0  0  0  0  0  0  0  0  0
    4.7757   -0.1251   -1.7258 C   0  0  0  0  0  0  0  0  0  0  0  0
    3.5905   -0.4811   -2.3579 C   0  0  0  0  0  0  0  0  0  0  0  0
    2.4183    0.2150   -2.0591 C   0  0  0  0  0  0  0  0  0  0  0  0
    2.3901    1.2427   -1.1624 C   0  0  0  0  0  0  0  0  0  0  0  0
    1.1340    1.9977   -0.8347 C   0  0  0  0  0  0  0  0  0  0  0  0
    0.4232    1.3194    0.3426 C   0  0  0  0  0  0  0  0  0  0  0  0
    0.1140   -0.0817   -0.0859 C   0  0  0  0  0  0  0  0  0  0  0  0
   -0.5773   -0.8221    0.9803 C   0  0  0  0  0  0  0  0  0  0  0  0
    0.0753   -1.7390    1.7428 N   0  0  0  0  0  0  0  0  0  0  0  0
   -0.5164   -2.4396    2.7256 C   0  0  0  0  0  0  0  0  0  0  0  0
    0.2208   -3.3899    3.4952 N   0  0  0  0  0  0  0  0  0  0  0  0
   -1.8250   -2.2045    2.9477 N   0  0  0  0  0  0  0  0  0  0  0  0
   -2.5195   -1.3105    2.2252 C   0  0  0  0  0  0  0  0  0  0  0  0
   -3.9002   -1.0697    2.4667 N   0  0  0  0  0  0  0  0  0  0  0  0
   -1.9152   -0.5856    1.2120 C   0  0  0  0  0  0  0  0  0  0  0  0
   -2.6428    0.3942    0.4141 C   0  0  0  0  0  0  0  0  0  0  0  0
   -2.6345    1.7513    0.6603 C   0  0  0  0  0  0  0  0  0  0  0  0
   -3.3327    2.6611   -0.1155 C   0  0  0  0  0  0  0  0  0  0  0  0
   -4.0810    2.2292   -1.1905 C   0  0  0  0  0  0  0  0  0  0  0  0
   -4.1007    0.8745   -1.4512 C   0  0  0  0  0  0  0  0  0  0  0  0
   -5.0539    0.3247   -2.8179 Cl  0  0  0  0  0  0  0  0  0  0  0  0
   -3.4053   -0.0329   -0.6784 C   0  0  0  0  0  0  0  0  0  0  0  0
    3.5570    1.6035   -0.5317 C   0  0  0  0  0  0  0  0  0  0  0  0
    4.7435    0.9137   -0.8205 C   0  0  0  0  0  0  0  0  0  0  0  0
  1  2  1  0
  2  3  1  0
  3  4  2  0
  4  5  1  0
  5  6  2  0
  6  7  1  0
  7  8  1  0
  8  9  1  0
  9 10  1  0
 10 11  2  0
 11 12  1  0
 12 13  1  0
 12 14  2  0
 14 15  1  0
 15 16  1  0
 15 17  2  0
 17 18  1  0
 18 19  2  0
 19 20  1  0
 20 21  2  0
 21 22  1  0
 22 23  1  0
 22 24  2  0
  6 25  1  0
 25 26  2  0
 26  3  1  0
 17 10  1  0
 24 18  1  0
M  END
>  <zinc_id>  (374) 
ZINC000013472731

>  <ortholog_name>  (374) 
DRTS_PLAFK

>  <gene_name>  (374) 
DRTS_PLAFK

>  <affinity>  (374) 
8.70

>  <chembldocid>  (374) 
17662

>  <title>  (374) 
None

>  <reference.pubmed_id>  (374) 
14736247

>  <reference.doi>  (374) 
None

>  <reference.chembl_id>  (374) 
CHEMBL1138835

>  <reference.journal>  (374) 
J. Med. Chem.

>  <reference.year>  (374) 
2004

$$$$

     RDKit          3D

 26 28  0  0  0  0  0  0  0  0999 V2000
    7.1243   -0.4267   -1.3576 C   0  0  0  0  0  0  0  0  0  0  0  0
    5.9376   -0.8188   -2.0236 O   0  0  0  0  0  0  0  0  0  0  0  0
    4.7757   -0.1251   -1.7258 C   0  0  0  0  0  0  0  0  0  0  0  0
    3.5905   -0.4811   -2.3579 C   0  0  0  0  0  0  0  0  0  0  0  0
    2.4183    0.2150   -2.0591 C   0  0  0  0  0  0  0  0  0  0  0  0
    2.3901    1.2427   -1.1624 C   0  0  0  0  0  0  0  0  0  0  0  0
    1.1340    1.9977   -0.8347 C   0  0  0  0  0  0  0  0  0  0  0  0
    0.4232    1.3194    0.3426 C   0  0  0  0  0  0  0  0  0  0  0  0
    0.1140   -0.0817   -0.0859 C   0  0  0  0  0  0  0  0  0  0  0  0
   -0.5773   -0.8221    0.9803 C   0  0  0  0  0  0  0  0  0  0  0  0
    0.0753   -1.7390    1.7428 N   0  0  0  0  0  0  0  0  0  0  0  0
   -0.5164   -2.4396    2.7256 C   0  0  0  0  0  0  0  0  0  0  0  0
    0.2208   -3.3899    3.4952 N   0  0  0  0  0  0  0  0  0  0  0  0
   -1.8250   -2.2045    2.9477 N   0  0  0  0  0  0  0  0  0  0  0  0
   -2.5195   -1.3105    2.2252 C   0  0  0  0  0  0  0  0  0  0  0  0
   -3.9002   -1.0697    2.4667 N   0  0  0  0  0  0  0  0  0  0  0  0
   -1.9152   -0.5856    1.2120 C   0  0  0  0  0  0  0  0  0  0  0  0
   -2.6428    0.3942    0.4141 C   0  0  0  0  0  0  0  0  0  0  0  0
   -2.6345    1.7513    0.6603 C   0  0  0  0  0  0  0  0  0  0  0  0
   -3.3327    2.6611   -0.1155 C   0  0  0  0  0  0  0  0  0  0  0  0
   -4.0810    2.2292   -1.1905 C   0  0  0  0  0  0  0  0  0  0  0  0
   -4.1007    0.8745   -1.4512 C   0  0  0  0  0  0  0  0  0  0  0  0
   -5.0539    0.3247   -2.8179 Cl  0  0  0  0  0  0  0  0  0  0  0  0
   -3.4053   -0.0329   -0.6784 C   0  0  0  0  0  0  0  0  0  0  0  0
    3.5570    1.6035   -0.5317 C   0  0  0  0  0  0  0  0  0  0  0  0
    4.7435    0.9137   -0.8205 C   0  0  0  0  0  0  0  0  0  0  0  0
  1  2  1  0
  2  3  1  0
  3  4  2  0
  4  5  1  0
  5  6  2  0
  6  7  1  0
  7  8  1  0
  8  9  1  0
  9 10  1  0
 10 11  2  0
 11 12  1  0
 12 13  1  0
 12 14  2  0
 14 15  1  0
 15 16  1  0
 15 17  2  0
 17 18  1  0
 18 19  2  0
 19 20  1  0
 20 21  2  0
 21 22  1  0
 22 23  1  0
 22 24  2  0
  6 25  1  0
 25 26  2  0
 26  3  1  0
 17 10  1  0
 24 18  1  0
M  END
>  <zinc_id>  (375) 
ZINC000013472731

>  <ortholog_name>  (375) 
DRTS_PLAFK

>  <gene_name>  (375) 
DRTS_PLAFK

>  <affinity>  (375) 
8.66

>  <chembldocid>  (375) 
16871

>  <title>  (375) 
None

>  <reference.pubmed_id>  (375) 
11881993

>  <reference.doi>  (375) 
None

>  <reference.chembl_id>  (375) 
CHEMBL1135602

>  <reference.journal>  (375) 
J. Med. Chem.

>  <reference.year>  (375) 
2002

$$$$

     RDKit          3D

 26 28  0  0  0  0  0  0  0  0999 V2000
    7.1243   -0.4267   -1.3576 C   0  0  0  0  0  0  0  0  0  0  0  0
    5.9376   -0.8188   -2.0236 O   0  0  0  0  0  0  0  0  0  0  0  0
    4.7757   -0.1251   -1.7258 C   0  0  0  0  0  0  0  0  0  0  0  0
    3.5905   -0.4811   -2.3579 C   0  0  0  0  0  0  0  0  0  0  0  0
    2.4183    0.2150   -2.0591 C   0  0  0  0  0  0  0  0  0  0  0  0
    2.3901    1.2427   -1.1624 C   0  0  0  0  0  0  0  0  0  0  0  0
    1.1340    1.9977   -0.8347 C   0  0  0  0  0  0  0  0  0  0  0  0
    0.4232    1.3194    0.3426 C   0  0  0  0  0  0  0  0  0  0  0  0
    0.1140   -0.0817   -0.0859 C   0  0  0  0  0  0  0  0  0  0  0  0
   -0.5773   -0.8221    0.9803 C   0  0  0  0  0  0  0  0  0  0  0  0
    0.0753   -1.7390    1.7428 N   0  0  0  0  0  0  0  0  0  0  0  0
   -0.5164   -2.4396    2.7256 C   0  0  0  0  0  0  0  0  0  0  0  0
    0.2208   -3.3899    3.4952 N   0  0  0  0  0  0  0  0  0  0  0  0
   -1.8250   -2.2045    2.9477 N   0  0  0  0  0  0  0  0  0  0  0  0
   -2.5195   -1.3105    2.2252 C   0  0  0  0  0  0  0  0  0  0  0  0
   -3.9002   -1.0697    2.4667 N   0  0  0  0  0  0  0  0  0  0  0  0
   -1.9152   -0.5856    1.2120 C   0  0  0  0  0  0  0  0  0  0  0  0
   -2.6428    0.3942    0.4141 C   0  0  0  0  0  0  0  0  0  0  0  0
   -2.6345    1.7513    0.6603 C   0  0  0  0  0  0  0  0  0  0  0  0
   -3.3327    2.6611   -0.1155 C   0  0  0  0  0  0  0  0  0  0  0  0
   -4.0810    2.2292   -1.1905 C   0  0  0  0  0  0  0  0  0  0  0  0
   -4.1007    0.8745   -1.4512 C   0  0  0  0  0  0  0  0  0  0  0  0
   -5.0539    0.3247   -2.8179 Cl  0  0  0  0  0  0  0  0  0  0  0  0
   -3.4053   -0.0329   -0.6784 C   0  0  0  0  0  0  0  0  0  0  0  0
    3.5570    1.6035   -0.5317 C   0  0  0  0  0  0  0  0  0  0  0  0
    4.7435    0.9137   -0.8205 C   0  0  0  0  0  0  0  0  0  0  0  0
  1  2  1  0
  2  3  1  0
  3  4  2  0
  4  5  1  0
  5  6  2  0
  6  7  1  0
  7  8  1  0
  8  9  1  0
  9 10  1  0
 10 11  2  0
 11 12  1  0
 12 13  1  0
 12 14  2  0
 14 15  1  0
 15 16  1  0
 15 17  2  0
 17 18  1  0
 18 19  2  0
 19 20  1  0
 20 21  2  0
 21 22  1  0
 22 23  1  0
 22 24  2  0
  6 25  1  0
 25 26  2  0
 26  3  1  0
 17 10  1  0
 24 18  1  0
M  END
>  <zinc_id>  (376) 
ZINC000013472731

>  <ortholog_name>  (376) 
DRTS_PLAFK

>  <gene_name>  (376) 
DRTS_PLAFK

>  <affinity>  (376) 
8.66

>  <chembldocid>  (376) 
17662

>  <title>  (376) 
None

>  <reference.pubmed_id>  (376) 
14736247

>  <reference.doi>  (376) 
None

>  <reference.chembl_id>  (376) 
CHEMBL1138835

>  <reference.journal>  (376) 
J. Med. Chem.

>  <reference.year>  (376) 
2004

$$$$

     RDKit          3D

 26 28  0  0  0  0  0  0  0  0999 V2000
    7.1243   -0.4267   -1.3576 C   0  0  0  0  0  0  0  0  0  0  0  0
    5.9376   -0.8188   -2.0236 O   0  0  0  0  0  0  0  0  0  0  0  0
    4.7757   -0.1251   -1.7258 C   0  0  0  0  0  0  0  0  0  0  0  0
    3.5905   -0.4811   -2.3579 C   0  0  0  0  0  0  0  0  0  0  0  0
    2.4183    0.2150   -2.0591 C   0  0  0  0  0  0  0  0  0  0  0  0
    2.3901    1.2427   -1.1624 C   0  0  0  0  0  0  0  0  0  0  0  0
    1.1340    1.9977   -0.8347 C   0  0  0  0  0  0  0  0  0  0  0  0
    0.4232    1.3194    0.3426 C   0  0  0  0  0  0  0  0  0  0  0  0
    0.1140   -0.0817   -0.0859 C   0  0  0  0  0  0  0  0  0  0  0  0
   -0.5773   -0.8221    0.9803 C   0  0  0  0  0  0  0  0  0  0  0  0
    0.0753   -1.7390    1.7428 N   0  0  0  0  0  0  0  0  0  0  0  0
   -0.5164   -2.4396    2.7256 C   0  0  0  0  0  0  0  0  0  0  0  0
    0.2208   -3.3899    3.4952 N   0  0  0  0  0  0  0  0  0  0  0  0
   -1.8250   -2.2045    2.9477 N   0  0  0  0  0  0  0  0  0  0  0  0
   -2.5195   -1.3105    2.2252 C   0  0  0  0  0  0  0  0  0  0  0  0
   -3.9002   -1.0697    2.4667 N   0  0  0  0  0  0  0  0  0  0  0  0
   -1.9152   -0.5856    1.2120 C   0  0  0  0  0  0  0  0  0  0  0  0
   -2.6428    0.3942    0.4141 C   0  0  0  0  0  0  0  0  0  0  0  0
   -2.6345    1.7513    0.6603 C   0  0  0  0  0  0  0  0  0  0  0  0
   -3.3327    2.6611   -0.1155 C   0  0  0  0  0  0  0  0  0  0  0  0
   -4.0810    2.2292   -1.1905 C   0  0  0  0  0  0  0  0  0  0  0  0
   -4.1007    0.8745   -1.4512 C   0  0  0  0  0  0  0  0  0  0  0  0
   -5.0539    0.3247   -2.8179 Cl  0  0  0  0  0  0  0  0  0  0  0  0
   -3.4053   -0.0329   -0.6784 C   0  0  0  0  0  0  0  0  0  0  0  0
    3.5570    1.6035   -0.5317 C   0  0  0  0  0  0  0  0  0  0  0  0
    4.7435    0.9137   -0.8205 C   0  0  0  0  0  0  0  0  0  0  0  0
  1  2  1  0
  2  3  1  0
  3  4  2  0
  4  5  1  0
  5  6  2  0
  6  7  1  0
  7  8  1  0
  8  9  1  0
  9 10  1  0
 10 11  2  0
 11 12  1  0
 12 13  1  0
 12 14  2  0
 14 15  1  0
 15 16  1  0
 15 17  2  0
 17 18  1  0
 18 19  2  0
 19 20  1  0
 20 21  2  0
 21 22  1  0
 22 23  1  0
 22 24  2  0
  6 25  1  0
 25 26  2  0
 26  3  1  0
 17 10  1  0
 24 18  1  0
M  END
>  <zinc_id>  (377) 
ZINC000013472731

>  <ortholog_name>  (377) 
DRTS_PLAFK

>  <gene_name>  (377) 
DRTS_PLAFK

>  <affinity>  (377) 
8.54

>  <chembldocid>  (377) 
17662

>  <title>  (377) 
None

>  <reference.pubmed_id>  (377) 
14736247

>  <reference.doi>  (377) 
None

>  <reference.chembl_id>  (377) 
CHEMBL1138835

>  <reference.journal>  (377) 
J. Med. Chem.

>  <reference.year>  (377) 
2004

$$$$

     RDKit          3D

 26 28  0  0  0  0  0  0  0  0999 V2000
    7.1243   -0.4267   -1.3576 C   0  0  0  0  0  0  0  0  0  0  0  0
    5.9376   -0.8188   -2.0236 O   0  0  0  0  0  0  0  0  0  0  0  0
    4.7757   -0.1251   -1.7258 C   0  0  0  0  0  0  0  0  0  0  0  0
    3.5905   -0.4811   -2.3579 C   0  0  0  0  0  0  0  0  0  0  0  0
    2.4183    0.2150   -2.0591 C   0  0  0  0  0  0  0  0  0  0  0  0
    2.3901    1.2427   -1.1624 C   0  0  0  0  0  0  0  0  0  0  0  0
    1.1340    1.9977   -0.8347 C   0  0  0  0  0  0  0  0  0  0  0  0
    0.4232    1.3194    0.3426 C   0  0  0  0  0  0  0  0  0  0  0  0
    0.1140   -0.0817   -0.0859 C   0  0  0  0  0  0  0  0  0  0  0  0
   -0.5773   -0.8221    0.9803 C   0  0  0  0  0  0  0  0  0  0  0  0
    0.0753   -1.7390    1.7428 N   0  0  0  0  0  0  0  0  0  0  0  0
   -0.5164   -2.4396    2.7256 C   0  0  0  0  0  0  0  0  0  0  0  0
    0.2208   -3.3899    3.4952 N   0  0  0  0  0  0  0  0  0  0  0  0
   -1.8250   -2.2045    2.9477 N   0  0  0  0  0  0  0  0  0  0  0  0
   -2.5195   -1.3105    2.2252 C   0  0  0  0  0  0  0  0  0  0  0  0
   -3.9002   -1.0697    2.4667 N   0  0  0  0  0  0  0  0  0  0  0  0
   -1.9152   -0.5856    1.2120 C   0  0  0  0  0  0  0  0  0  0  0  0
   -2.6428    0.3942    0.4141 C   0  0  0  0  0  0  0  0  0  0  0  0
   -2.6345    1.7513    0.6603 C   0  0  0  0  0  0  0  0  0  0  0  0
   -3.3327    2.6611   -0.1155 C   0  0  0  0  0  0  0  0  0  0  0  0
   -4.0810    2.2292   -1.1905 C   0  0  0  0  0  0  0  0  0  0  0  0
   -4.1007    0.8745   -1.4512 C   0  0  0  0  0  0  0  0  0  0  0  0
   -5.0539    0.3247   -2.8179 Cl  0  0  0  0  0  0  0  0  0  0  0  0
   -3.4053   -0.0329   -0.6784 C   0  0  0  0  0  0  0  0  0  0  0  0
    3.5570    1.6035   -0.5317 C   0  0  0  0  0  0  0  0  0  0  0  0
    4.7435    0.9137   -0.8205 C   0  0  0  0  0  0  0  0  0  0  0  0
  1  2  1  0
  2  3  1  0
  3  4  2  0
  4  5  1  0
  5  6  2  0
  6  7  1  0
  7  8  1  0
  8  9  1  0
  9 10  1  0
 10 11  2  0
 11 12  1  0
 12 13  1  0
 12 14  2  0
 14 15  1  0
 15 16  1  0
 15 17  2  0
 17 18  1  0
 18 19  2  0
 19 20  1  0
 20 21  2  0
 21 22  1  0
 22 23  1  0
 22 24  2  0
  6 25  1  0
 25 26  2  0
 26  3  1  0
 17 10  1  0
 24 18  1  0
M  END
>  <zinc_id>  (378) 
ZINC000013472731

>  <ortholog_name>  (378) 
DRTS_PLAFK

>  <gene_name>  (378) 
DRTS_PLAFK

>  <affinity>  (378) 
5.57

>  <chembldocid>  (378) 
16871

>  <title>  (378) 
None

>  <reference.pubmed_id>  (378) 
11881993

>  <reference.doi>  (378) 
None

>  <reference.chembl_id>  (378) 
CHEMBL1135602

>  <reference.journal>  (378) 
J. Med. Chem.

>  <reference.year>  (378) 
2002

$$$$

     RDKit          3D

 26 28  0  0  0  0  0  0  0  0999 V2000
    7.1243   -0.4267   -1.3576 C   0  0  0  0  0  0  0  0  0  0  0  0
    5.9376   -0.8188   -2.0236 O   0  0  0  0  0  0  0  0  0  0  0  0
    4.7757   -0.1251   -1.7258 C   0  0  0  0  0  0  0  0  0  0  0  0
    3.5905   -0.4811   -2.3579 C   0  0  0  0  0  0  0  0  0  0  0  0
    2.4183    0.2150   -2.0591 C   0  0  0  0  0  0  0  0  0  0  0  0
    2.3901    1.2427   -1.1624 C   0  0  0  0  0  0  0  0  0  0  0  0
    1.1340    1.9977   -0.8347 C   0  0  0  0  0  0  0  0  0  0  0  0
    0.4232    1.3194    0.3426 C   0  0  0  0  0  0  0  0  0  0  0  0
    0.1140   -0.0817   -0.0859 C   0  0  0  0  0  0  0  0  0  0  0  0
   -0.5773   -0.8221    0.9803 C   0  0  0  0  0  0  0  0  0  0  0  0
    0.0753   -1.7390    1.7428 N   0  0  0  0  0  0  0  0  0  0  0  0
   -0.5164   -2.4396    2.7256 C   0  0  0  0  0  0  0  0  0  0  0  0
    0.2208   -3.3899    3.4952 N   0  0  0  0  0  0  0  0  0  0  0  0
   -1.8250   -2.2045    2.9477 N   0  0  0  0  0  0  0  0  0  0  0  0
   -2.5195   -1.3105    2.2252 C   0  0  0  0  0  0  0  0  0  0  0  0
   -3.9002   -1.0697    2.4667 N   0  0  0  0  0  0  0  0  0  0  0  0
   -1.9152   -0.5856    1.2120 C   0  0  0  0  0  0  0  0  0  0  0  0
   -2.6428    0.3942    0.4141 C   0  0  0  0  0  0  0  0  0  0  0  0
   -2.6345    1.7513    0.6603 C   0  0  0  0  0  0  0  0  0  0  0  0
   -3.3327    2.6611   -0.1155 C   0  0  0  0  0  0  0  0  0  0  0  0
   -4.0810    2.2292   -1.1905 C   0  0  0  0  0  0  0  0  0  0  0  0
   -4.1007    0.8745   -1.4512 C   0  0  0  0  0  0  0  0  0  0  0  0
   -5.0539    0.3247   -2.8179 Cl  0  0  0  0  0  0  0  0  0  0  0  0
   -3.4053   -0.0329   -0.6784 C   0  0  0  0  0  0  0  0  0  0  0  0
    3.5570    1.6035   -0.5317 C   0  0  0  0  0  0  0  0  0  0  0  0
    4.7435    0.9137   -0.8205 C   0  0  0  0  0  0  0  0  0  0  0  0
  1  2  1  0
  2  3  1  0
  3  4  2  0
  4  5  1  0
  5  6  2  0
  6  7  1  0
  7  8  1  0
  8  9  1  0
  9 10  1  0
 10 11  2  0
 11 12  1  0
 12 13  1  0
 12 14  2  0
 14 15  1  0
 15 16  1  0
 15 17  2  0
 17 18  1  0
 18 19  2  0
 19 20  1  0
 20 21  2  0
 21 22  1  0
 22 23  1  0
 22 24  2  0
  6 25  1  0
 25 26  2  0
 26  3  1  0
 17 10  1  0
 24 18  1  0
M  END
>  <zinc_id>  (379) 
ZINC000013472731

>  <ortholog_name>  (379) 
DRTS_PLAFK

>  <gene_name>  (379) 
DRTS_PLAFK

>  <affinity>  (379) 
5.57

>  <chembldocid>  (379) 
17662

>  <title>  (379) 
None

>  <reference.pubmed_id>  (379) 
14736247

>  <reference.doi>  (379) 
None

>  <reference.chembl_id>  (379) 
CHEMBL1138835

>  <reference.journal>  (379) 
J. Med. Chem.

>  <reference.year>  (379) 
2004

$$$$

     RDKit          3D

 26 28  0  0  0  0  0  0  0  0999 V2000
    7.1243   -0.4267   -1.3576 C   0  0  0  0  0  0  0  0  0  0  0  0
    5.9376   -0.8188   -2.0236 O   0  0  0  0  0  0  0  0  0  0  0  0
    4.7757   -0.1251   -1.7258 C   0  0  0  0  0  0  0  0  0  0  0  0
    3.5905   -0.4811   -2.3579 C   0  0  0  0  0  0  0  0  0  0  0  0
    2.4183    0.2150   -2.0591 C   0  0  0  0  0  0  0  0  0  0  0  0
    2.3901    1.2427   -1.1624 C   0  0  0  0  0  0  0  0  0  0  0  0
    1.1340    1.9977   -0.8347 C   0  0  0  0  0  0  0  0  0  0  0  0
    0.4232    1.3194    0.3426 C   0  0  0  0  0  0  0  0  0  0  0  0
    0.1140   -0.0817   -0.0859 C   0  0  0  0  0  0  0  0  0  0  0  0
   -0.5773   -0.8221    0.9803 C   0  0  0  0  0  0  0  0  0  0  0  0
    0.0753   -1.7390    1.7428 N   0  0  0  0  0  0  0  0  0  0  0  0
   -0.5164   -2.4396    2.7256 C   0  0  0  0  0  0  0  0  0  0  0  0
    0.2208   -3.3899    3.4952 N   0  0  0  0  0  0  0  0  0  0  0  0
   -1.8250   -2.2045    2.9477 N   0  0  0  0  0  0  0  0  0  0  0  0
   -2.5195   -1.3105    2.2252 C   0  0  0  0  0  0  0  0  0  0  0  0
   -3.9002   -1.0697    2.4667 N   0  0  0  0  0  0  0  0  0  0  0  0
   -1.9152   -0.5856    1.2120 C   0  0  0  0  0  0  0  0  0  0  0  0
   -2.6428    0.3942    0.4141 C   0  0  0  0  0  0  0  0  0  0  0  0
   -2.6345    1.7513    0.6603 C   0  0  0  0  0  0  0  0  0  0  0  0
   -3.3327    2.6611   -0.1155 C   0  0  0  0  0  0  0  0  0  0  0  0
   -4.0810    2.2292   -1.1905 C   0  0  0  0  0  0  0  0  0  0  0  0
   -4.1007    0.8745   -1.4512 C   0  0  0  0  0  0  0  0  0  0  0  0
   -5.0539    0.3247   -2.8179 Cl  0  0  0  0  0  0  0  0  0  0  0  0
   -3.4053   -0.0329   -0.6784 C   0  0  0  0  0  0  0  0  0  0  0  0
    3.5570    1.6035   -0.5317 C   0  0  0  0  0  0  0  0  0  0  0  0
    4.7435    0.9137   -0.8205 C   0  0  0  0  0  0  0  0  0  0  0  0
  1  2  1  0
  2  3  1  0
  3  4  2  0
  4  5  1  0
  5  6  2  0
  6  7  1  0
  7  8  1  0
  8  9  1  0
  9 10  1  0
 10 11  2  0
 11 12  1  0
 12 13  1  0
 12 14  2  0
 14 15  1  0
 15 16  1  0
 15 17  2  0
 17 18  1  0
 18 19  2  0
 19 20  1  0
 20 21  2  0
 21 22  1  0
 22 23  1  0
 22 24  2  0
  6 25  1  0
 25 26  2  0
 26  3  1  0
 17 10  1  0
 24 18  1  0
M  END
>  <zinc_id>  (380) 
ZINC000013472731

>  <ortholog_name>  (380) 
DRTS_PLAFK

>  <gene_name>  (380) 
DRTS_PLAFK

>  <affinity>  (380) 
8.40

>  <chembldocid>  (380) 
16871

>  <title>  (380) 
None

>  <reference.pubmed_id>  (380) 
11881993

>  <reference.doi>  (380) 
None

>  <reference.chembl_id>  (380) 
CHEMBL1135602

>  <reference.journal>  (380) 
J. Med. Chem.

>  <reference.year>  (380) 
2002

$$$$

     RDKit          3D

 26 28  0  0  0  0  0  0  0  0999 V2000
    7.1243   -0.4267   -1.3576 C   0  0  0  0  0  0  0  0  0  0  0  0
    5.9376   -0.8188   -2.0236 O   0  0  0  0  0  0  0  0  0  0  0  0
    4.7757   -0.1251   -1.7258 C   0  0  0  0  0  0  0  0  0  0  0  0
    3.5905   -0.4811   -2.3579 C   0  0  0  0  0  0  0  0  0  0  0  0
    2.4183    0.2150   -2.0591 C   0  0  0  0  0  0  0  0  0  0  0  0
    2.3901    1.2427   -1.1624 C   0  0  0  0  0  0  0  0  0  0  0  0
    1.1340    1.9977   -0.8347 C   0  0  0  0  0  0  0  0  0  0  0  0
    0.4232    1.3194    0.3426 C   0  0  0  0  0  0  0  0  0  0  0  0
    0.1140   -0.0817   -0.0859 C   0  0  0  0  0  0  0  0  0  0  0  0
   -0.5773   -0.8221    0.9803 C   0  0  0  0  0  0  0  0  0  0  0  0
    0.0753   -1.7390    1.7428 N   0  0  0  0  0  0  0  0  0  0  0  0
   -0.5164   -2.4396    2.7256 C   0  0  0  0  0  0  0  0  0  0  0  0
    0.2208   -3.3899    3.4952 N   0  0  0  0  0  0  0  0  0  0  0  0
   -1.8250   -2.2045    2.9477 N   0  0  0  0  0  0  0  0  0  0  0  0
   -2.5195   -1.3105    2.2252 C   0  0  0  0  0  0  0  0  0  0  0  0
   -3.9002   -1.0697    2.4667 N   0  0  0  0  0  0  0  0  0  0  0  0
   -1.9152   -0.5856    1.2120 C   0  0  0  0  0  0  0  0  0  0  0  0
   -2.6428    0.3942    0.4141 C   0  0  0  0  0  0  0  0  0  0  0  0
   -2.6345    1.7513    0.6603 C   0  0  0  0  0  0  0  0  0  0  0  0
   -3.3327    2.6611   -0.1155 C   0  0  0  0  0  0  0  0  0  0  0  0
   -4.0810    2.2292   -1.1905 C   0  0  0  0  0  0  0  0  0  0  0  0
   -4.1007    0.8745   -1.4512 C   0  0  0  0  0  0  0  0  0  0  0  0
   -5.0539    0.3247   -2.8179 Cl  0  0  0  0  0  0  0  0  0  0  0  0
   -3.4053   -0.0329   -0.6784 C   0  0  0  0  0  0  0  0  0  0  0  0
    3.5570    1.6035   -0.5317 C   0  0  0  0  0  0  0  0  0  0  0  0
    4.7435    0.9137   -0.8205 C   0  0  0  0  0  0  0  0  0  0  0  0
  1  2  1  0
  2  3  1  0
  3  4  2  0
  4  5  1  0
  5  6  2  0
  6  7  1  0
  7  8  1  0
  8  9  1  0
  9 10  1  0
 10 11  2  0
 11 12  1  0
 12 13  1  0
 12 14  2  0
 14 15  1  0
 15 16  1  0
 15 17  2  0
 17 18  1  0
 18 19  2  0
 19 20  1  0
 20 21  2  0
 21 22  1  0
 22 23  1  0
 22 24  2  0
  6 25  1  0
 25 26  2  0
 26  3  1  0
 17 10  1  0
 24 18  1  0
M  END
>  <zinc_id>  (381) 
ZINC000013472731

>  <ortholog_name>  (381) 
DRTS_PLAFK

>  <gene_name>  (381) 
DRTS_PLAFK

>  <affinity>  (381) 
5.40

>  <chembldocid>  (381) 
17662

>  <title>  (381) 
None

>  <reference.pubmed_id>  (381) 
14736247

>  <reference.doi>  (381) 
None

>  <reference.chembl_id>  (381) 
CHEMBL1138835

>  <reference.journal>  (381) 
J. Med. Chem.

>  <reference.year>  (381) 
2004

$$$$

     RDKit          3D

 26 28  0  0  0  0  0  0  0  0999 V2000
    7.1243   -0.4267   -1.3576 C   0  0  0  0  0  0  0  0  0  0  0  0
    5.9376   -0.8188   -2.0236 O   0  0  0  0  0  0  0  0  0  0  0  0
    4.7757   -0.1251   -1.7258 C   0  0  0  0  0  0  0  0  0  0  0  0
    3.5905   -0.4811   -2.3579 C   0  0  0  0  0  0  0  0  0  0  0  0
    2.4183    0.2150   -2.0591 C   0  0  0  0  0  0  0  0  0  0  0  0
    2.3901    1.2427   -1.1624 C   0  0  0  0  0  0  0  0  0  0  0  0
    1.1340    1.9977   -0.8347 C   0  0  0  0  0  0  0  0  0  0  0  0
    0.4232    1.3194    0.3426 C   0  0  0  0  0  0  0  0  0  0  0  0
    0.1140   -0.0817   -0.0859 C   0  0  0  0  0  0  0  0  0  0  0  0
   -0.5773   -0.8221    0.9803 C   0  0  0  0  0  0  0  0  0  0  0  0
    0.0753   -1.7390    1.7428 N   0  0  0  0  0  0  0  0  0  0  0  0
   -0.5164   -2.4396    2.7256 C   0  0  0  0  0  0  0  0  0  0  0  0
    0.2208   -3.3899    3.4952 N   0  0  0  0  0  0  0  0  0  0  0  0
   -1.8250   -2.2045    2.9477 N   0  0  0  0  0  0  0  0  0  0  0  0
   -2.5195   -1.3105    2.2252 C   0  0  0  0  0  0  0  0  0  0  0  0
   -3.9002   -1.0697    2.4667 N   0  0  0  0  0  0  0  0  0  0  0  0
   -1.9152   -0.5856    1.2120 C   0  0  0  0  0  0  0  0  0  0  0  0
   -2.6428    0.3942    0.4141 C   0  0  0  0  0  0  0  0  0  0  0  0
   -2.6345    1.7513    0.6603 C   0  0  0  0  0  0  0  0  0  0  0  0
   -3.3327    2.6611   -0.1155 C   0  0  0  0  0  0  0  0  0  0  0  0
   -4.0810    2.2292   -1.1905 C   0  0  0  0  0  0  0  0  0  0  0  0
   -4.1007    0.8745   -1.4512 C   0  0  0  0  0  0  0  0  0  0  0  0
   -5.0539    0.3247   -2.8179 Cl  0  0  0  0  0  0  0  0  0  0  0  0
   -3.4053   -0.0329   -0.6784 C   0  0  0  0  0  0  0  0  0  0  0  0
    3.5570    1.6035   -0.5317 C   0  0  0  0  0  0  0  0  0  0  0  0
    4.7435    0.9137   -0.8205 C   0  0  0  0  0  0  0  0  0  0  0  0
  1  2  1  0
  2  3  1  0
  3  4  2  0
  4  5  1  0
  5  6  2  0
  6  7  1  0
  7  8  1  0
  8  9  1  0
  9 10  1  0
 10 11  2  0
 11 12  1  0
 12 13  1  0
 12 14  2  0
 14 15  1  0
 15 16  1  0
 15 17  2  0
 17 18  1  0
 18 19  2  0
 19 20  1  0
 20 21  2  0
 21 22  1  0
 22 23  1  0
 22 24  2  0
  6 25  1  0
 25 26  2  0
 26  3  1  0
 17 10  1  0
 24 18  1  0
M  END
>  <zinc_id>  (382) 
ZINC000013472731

>  <ortholog_name>  (382) 
DRTS_PLAFK

>  <gene_name>  (382) 
DRTS_PLAFK

>  <affinity>  (382) 
6.39

>  <chembldocid>  (382) 
17662

>  <title>  (382) 
None

>  <reference.pubmed_id>  (382) 
14736247

>  <reference.doi>  (382) 
None

>  <reference.chembl_id>  (382) 
CHEMBL1138835

>  <reference.journal>  (382) 
J. Med. Chem.

>  <reference.year>  (382) 
2004

$$$$

     RDKit          3D

 26 28  0  0  0  0  0  0  0  0999 V2000
    7.1243   -0.4267   -1.3576 C   0  0  0  0  0  0  0  0  0  0  0  0
    5.9376   -0.8188   -2.0236 O   0  0  0  0  0  0  0  0  0  0  0  0
    4.7757   -0.1251   -1.7258 C   0  0  0  0  0  0  0  0  0  0  0  0
    3.5905   -0.4811   -2.3579 C   0  0  0  0  0  0  0  0  0  0  0  0
    2.4183    0.2150   -2.0591 C   0  0  0  0  0  0  0  0  0  0  0  0
    2.3901    1.2427   -1.1624 C   0  0  0  0  0  0  0  0  0  0  0  0
    1.1340    1.9977   -0.8347 C   0  0  0  0  0  0  0  0  0  0  0  0
    0.4232    1.3194    0.3426 C   0  0  0  0  0  0  0  0  0  0  0  0
    0.1140   -0.0817   -0.0859 C   0  0  0  0  0  0  0  0  0  0  0  0
   -0.5773   -0.8221    0.9803 C   0  0  0  0  0  0  0  0  0  0  0  0
    0.0753   -1.7390    1.7428 N   0  0  0  0  0  0  0  0  0  0  0  0
   -0.5164   -2.4396    2.7256 C   0  0  0  0  0  0  0  0  0  0  0  0
    0.2208   -3.3899    3.4952 N   0  0  0  0  0  0  0  0  0  0  0  0
   -1.8250   -2.2045    2.9477 N   0  0  0  0  0  0  0  0  0  0  0  0
   -2.5195   -1.3105    2.2252 C   0  0  0  0  0  0  0  0  0  0  0  0
   -3.9002   -1.0697    2.4667 N   0  0  0  0  0  0  0  0  0  0  0  0
   -1.9152   -0.5856    1.2120 C   0  0  0  0  0  0  0  0  0  0  0  0
   -2.6428    0.3942    0.4141 C   0  0  0  0  0  0  0  0  0  0  0  0
   -2.6345    1.7513    0.6603 C   0  0  0  0  0  0  0  0  0  0  0  0
   -3.3327    2.6611   -0.1155 C   0  0  0  0  0  0  0  0  0  0  0  0
   -4.0810    2.2292   -1.1905 C   0  0  0  0  0  0  0  0  0  0  0  0
   -4.1007    0.8745   -1.4512 C   0  0  0  0  0  0  0  0  0  0  0  0
   -5.0539    0.3247   -2.8179 Cl  0  0  0  0  0  0  0  0  0  0  0  0
   -3.4053   -0.0329   -0.6784 C   0  0  0  0  0  0  0  0  0  0  0  0
    3.5570    1.6035   -0.5317 C   0  0  0  0  0  0  0  0  0  0  0  0
    4.7435    0.9137   -0.8205 C   0  0  0  0  0  0  0  0  0  0  0  0
  1  2  1  0
  2  3  1  0
  3  4  2  0
  4  5  1  0
  5  6  2  0
  6  7  1  0
  7  8  1  0
  8  9  1  0
  9 10  1  0
 10 11  2  0
 11 12  1  0
 12 13  1  0
 12 14  2  0
 14 15  1  0
 15 16  1  0
 15 17  2  0
 17 18  1  0
 18 19  2  0
 19 20  1  0
 20 21  2  0
 21 22  1  0
 22 23  1  0
 22 24  2  0
  6 25  1  0
 25 26  2  0
 26  3  1  0
 17 10  1  0
 24 18  1  0
M  END
>  <zinc_id>  (383) 
ZINC000013472731

>  <ortholog_name>  (383) 
DRTS_PLAFK

>  <gene_name>  (383) 
DRTS_PLAFK

>  <affinity>  (383) 
5.33

>  <chembldocid>  (383) 
17662

>  <title>  (383) 
None

>  <reference.pubmed_id>  (383) 
14736247

>  <reference.doi>  (383) 
None

>  <reference.chembl_id>  (383) 
CHEMBL1138835

>  <reference.journal>  (383) 
J. Med. Chem.

>  <reference.year>  (383) 
2004

$$$$

     RDKit          3D

 26 28  0  0  0  0  0  0  0  0999 V2000
    7.1243   -0.4267   -1.3576 C   0  0  0  0  0  0  0  0  0  0  0  0
    5.9376   -0.8188   -2.0236 O   0  0  0  0  0  0  0  0  0  0  0  0
    4.7757   -0.1251   -1.7258 C   0  0  0  0  0  0  0  0  0  0  0  0
    3.5905   -0.4811   -2.3579 C   0  0  0  0  0  0  0  0  0  0  0  0
    2.4183    0.2150   -2.0591 C   0  0  0  0  0  0  0  0  0  0  0  0
    2.3901    1.2427   -1.1624 C   0  0  0  0  0  0  0  0  0  0  0  0
    1.1340    1.9977   -0.8347 C   0  0  0  0  0  0  0  0  0  0  0  0
    0.4232    1.3194    0.3426 C   0  0  0  0  0  0  0  0  0  0  0  0
    0.1140   -0.0817   -0.0859 C   0  0  0  0  0  0  0  0  0  0  0  0
   -0.5773   -0.8221    0.9803 C   0  0  0  0  0  0  0  0  0  0  0  0
    0.0753   -1.7390    1.7428 N   0  0  0  0  0  0  0  0  0  0  0  0
   -0.5164   -2.4396    2.7256 C   0  0  0  0  0  0  0  0  0  0  0  0
    0.2208   -3.3899    3.4952 N   0  0  0  0  0  0  0  0  0  0  0  0
   -1.8250   -2.2045    2.9477 N   0  0  0  0  0  0  0  0  0  0  0  0
   -2.5195   -1.3105    2.2252 C   0  0  0  0  0  0  0  0  0  0  0  0
   -3.9002   -1.0697    2.4667 N   0  0  0  0  0  0  0  0  0  0  0  0
   -1.9152   -0.5856    1.2120 C   0  0  0  0  0  0  0  0  0  0  0  0
   -2.6428    0.3942    0.4141 C   0  0  0  0  0  0  0  0  0  0  0  0
   -2.6345    1.7513    0.6603 C   0  0  0  0  0  0  0  0  0  0  0  0
   -3.3327    2.6611   -0.1155 C   0  0  0  0  0  0  0  0  0  0  0  0
   -4.0810    2.2292   -1.1905 C   0  0  0  0  0  0  0  0  0  0  0  0
   -4.1007    0.8745   -1.4512 C   0  0  0  0  0  0  0  0  0  0  0  0
   -5.0539    0.3247   -2.8179 Cl  0  0  0  0  0  0  0  0  0  0  0  0
   -3.4053   -0.0329   -0.6784 C   0  0  0  0  0  0  0  0  0  0  0  0
    3.5570    1.6035   -0.5317 C   0  0  0  0  0  0  0  0  0  0  0  0
    4.7435    0.9137   -0.8205 C   0  0  0  0  0  0  0  0  0  0  0  0
  1  2  1  0
  2  3  1  0
  3  4  2  0
  4  5  1  0
  5  6  2  0
  6  7  1  0
  7  8  1  0
  8  9  1  0
  9 10  1  0
 10 11  2  0
 11 12  1  0
 12 13  1  0
 12 14  2  0
 14 15  1  0
 15 16  1  0
 15 17  2  0
 17 18  1  0
 18 19  2  0
 19 20  1  0
 20 21  2  0
 21 22  1  0
 22 23  1  0
 22 24  2  0
  6 25  1  0
 25 26  2  0
 26  3  1  0
 17 10  1  0
 24 18  1  0
M  END
>  <zinc_id>  (384) 
ZINC000013472731

>  <ortholog_name>  (384) 
DRTS_PLAFK

>  <gene_name>  (384) 
DRTS_PLAFK

>  <affinity>  (384) 
8.22

>  <chembldocid>  (384) 
16871

>  <title>  (384) 
None

>  <reference.pubmed_id>  (384) 
11881993

>  <reference.doi>  (384) 
None

>  <reference.chembl_id>  (384) 
CHEMBL1135602

>  <reference.journal>  (384) 
J. Med. Chem.

>  <reference.year>  (384) 
2002

$$$$

     RDKit          3D

 28 30  0  0  0  0  0  0  0  0999 V2000
   -0.7196    4.6599    0.5932 N   0  0  0  0  0  0  0  0  0  0  0  0
   -1.4258    3.4287    0.4423 C   0  0  0  0  0  0  0  0  0  0  0  0
   -2.5605    3.1786    1.1403 N   0  0  0  0  0  0  0  0  0  0  0  0
   -3.2112    2.0166    0.9853 C   0  0  0  0  0  0  0  0  0  0  0  0
   -4.4147    1.7325    1.7237 N   0  0  0  0  0  0  0  0  0  0  0  0
   -2.7649    1.0212    0.1118 C   0  0  0  0  0  0  0  0  0  0  0  0
   -3.4983   -0.2264    0.0049 C   0  0  0  0  0  0  0  0  0  0  0  0
   -4.7391   -0.3226   -0.6413 C   0  0  0  0  0  0  0  0  0  0  0  0
   -5.4010   -1.5255   -0.7140 C   0  0  0  0  0  0  0  0  0  0  0  0
   -4.8585   -2.6936   -0.1448 C   0  0  0  0  0  0  0  0  0  0  0  0
   -3.6432   -2.5818    0.4826 C   0  0  0  0  0  0  0  0  0  0  0  0
   -2.8167   -3.9368    1.2528 Cl  0  0  0  0  0  0  0  0  0  0  0  0
   -2.9933   -1.3707    0.5468 C   0  0  0  0  0  0  0  0  0  0  0  0
   -1.6255    1.2857   -0.5847 C   0  0  0  0  0  0  0  0  0  0  0  0
   -1.0737    0.2860   -1.5360 C   0  0  0  0  0  0  0  0  0  0  0  0
   -0.4648   -0.8900   -0.7543 C   0  0  0  0  0  0  0  0  0  0  0  0
    0.5013   -0.4932    0.1275 O   0  0  0  0  0  0  0  0  0  0  0  0
    1.5435    0.1422   -0.5371 C   0  0  0  0  0  0  0  0  0  0  0  0
    2.5339    0.5938    0.5379 C   0  0  0  0  0  0  0  0  0  0  0  0
    3.0025   -0.6406    1.2972 C   0  0  0  0  0  0  0  0  0  0  0  0
    3.6865   -1.5547    0.4316 O   0  0  0  0  0  0  0  0  0  0  0  0
    4.8403   -1.1608   -0.2222 C   0  0  0  0  0  0  0  0  0  0  0  0
    5.3559    0.1004   -0.0700 C   0  0  0  0  0  0  0  0  0  0  0  0
    6.5064    0.5461   -0.7049 C   0  0  0  0  0  0  0  0  0  0  0  0
    7.1305   -0.3887   -1.5294 C   0  0  0  0  0  0  0  0  0  0  0  0
    6.6329   -1.6313   -1.6875 C   0  0  0  0  0  0  0  0  0  0  0  0
    5.4776   -2.0537   -1.0400 C   0  0  0  0  0  0  0  0  0  0  0  0
   -1.0002    2.4786   -0.3912 N   0  0  0  0  0  0  0  0  0  0  0  0
  1  2  1  0
  2  3  2  0
  3  4  1  0
  4  5  1  0
  4  6  2  0
  6  7  1  0
  7  8  2  0
  8  9  1  0
  9 10  2  0
 10 11  1  0
 11 12  1  0
 11 13  2  0
  6 14  1  0
 14 15  1  0
 15 16  1  0
 16 17  1  0
 17 18  1  0
 18 19  1  0
 19 20  1  0
 20 21  1  0
 21 22  1  0
 22 23  2  0
 23 24  1  0
 24 25  2  0
 25 26  1  0
 26 27  2  0
 14 28  2  0
 28  2  1  0
 13  7  1  0
 27 22  1  0
M  END
>  <zinc_id>  (385) 
ZINC000013472732

>  <ortholog_name>  (385) 
DRTS_PLAFK

>  <gene_name>  (385) 
DRTS_PLAFK

>  <affinity>  (385) 
9.40

>  <chembldocid>  (385) 
16871

>  <title>  (385) 
None

>  <reference.pubmed_id>  (385) 
11881993

>  <reference.doi>  (385) 
None

>  <reference.chembl_id>  (385) 
CHEMBL1135602

>  <reference.journal>  (385) 
J. Med. Chem.

>  <reference.year>  (385) 
2002

$$$$

     RDKit          3D

 28 30  0  0  0  0  0  0  0  0999 V2000
   -0.7196    4.6599    0.5932 N   0  0  0  0  0  0  0  0  0  0  0  0
   -1.4258    3.4287    0.4423 C   0  0  0  0  0  0  0  0  0  0  0  0
   -2.5605    3.1786    1.1403 N   0  0  0  0  0  0  0  0  0  0  0  0
   -3.2112    2.0166    0.9853 C   0  0  0  0  0  0  0  0  0  0  0  0
   -4.4147    1.7325    1.7237 N   0  0  0  0  0  0  0  0  0  0  0  0
   -2.7649    1.0212    0.1118 C   0  0  0  0  0  0  0  0  0  0  0  0
   -3.4983   -0.2264    0.0049 C   0  0  0  0  0  0  0  0  0  0  0  0
   -4.7391   -0.3226   -0.6413 C   0  0  0  0  0  0  0  0  0  0  0  0
   -5.4010   -1.5255   -0.7140 C   0  0  0  0  0  0  0  0  0  0  0  0
   -4.8585   -2.6936   -0.1448 C   0  0  0  0  0  0  0  0  0  0  0  0
   -3.6432   -2.5818    0.4826 C   0  0  0  0  0  0  0  0  0  0  0  0
   -2.8167   -3.9368    1.2528 Cl  0  0  0  0  0  0  0  0  0  0  0  0
   -2.9933   -1.3707    0.5468 C   0  0  0  0  0  0  0  0  0  0  0  0
   -1.6255    1.2857   -0.5847 C   0  0  0  0  0  0  0  0  0  0  0  0
   -1.0737    0.2860   -1.5360 C   0  0  0  0  0  0  0  0  0  0  0  0
   -0.4648   -0.8900   -0.7543 C   0  0  0  0  0  0  0  0  0  0  0  0
    0.5013   -0.4932    0.1275 O   0  0  0  0  0  0  0  0  0  0  0  0
    1.5435    0.1422   -0.5371 C   0  0  0  0  0  0  0  0  0  0  0  0
    2.5339    0.5938    0.5379 C   0  0  0  0  0  0  0  0  0  0  0  0
    3.0025   -0.6406    1.2972 C   0  0  0  0  0  0  0  0  0  0  0  0
    3.6865   -1.5547    0.4316 O   0  0  0  0  0  0  0  0  0  0  0  0
    4.8403   -1.1608   -0.2222 C   0  0  0  0  0  0  0  0  0  0  0  0
    5.3559    0.1004   -0.0700 C   0  0  0  0  0  0  0  0  0  0  0  0
    6.5064    0.5461   -0.7049 C   0  0  0  0  0  0  0  0  0  0  0  0
    7.1305   -0.3887   -1.5294 C   0  0  0  0  0  0  0  0  0  0  0  0
    6.6329   -1.6313   -1.6875 C   0  0  0  0  0  0  0  0  0  0  0  0
    5.4776   -2.0537   -1.0400 C   0  0  0  0  0  0  0  0  0  0  0  0
   -1.0002    2.4786   -0.3912 N   0  0  0  0  0  0  0  0  0  0  0  0
  1  2  1  0
  2  3  2  0
  3  4  1  0
  4  5  1  0
  4  6  2  0
  6  7  1  0
  7  8  2  0
  8  9  1  0
  9 10  2  0
 10 11  1  0
 11 12  1  0
 11 13  2  0
  6 14  1  0
 14 15  1  0
 15 16  1  0
 16 17  1  0
 17 18  1  0
 18 19  1  0
 19 20  1  0
 20 21  1  0
 21 22  1  0
 22 23  2  0
 23 24  1  0
 24 25  2  0
 25 26  1  0
 26 27  2  0
 14 28  2  0
 28  2  1  0
 13  7  1  0
 27 22  1  0
M  END
>  <zinc_id>  (386) 
ZINC000013472732

>  <ortholog_name>  (386) 
DRTS_PLAFK

>  <gene_name>  (386) 
DRTS_PLAFK

>  <affinity>  (386) 
9.40

>  <chembldocid>  (386) 
17662

>  <title>  (386) 
None

>  <reference.pubmed_id>  (386) 
14736247

>  <reference.doi>  (386) 
None

>  <reference.chembl_id>  (386) 
CHEMBL1138835

>  <reference.journal>  (386) 
J. Med. Chem.

>  <reference.year>  (386) 
2004

$$$$

     RDKit          3D

 28 30  0  0  0  0  0  0  0  0999 V2000
   -0.7196    4.6599    0.5932 N   0  0  0  0  0  0  0  0  0  0  0  0
   -1.4258    3.4287    0.4423 C   0  0  0  0  0  0  0  0  0  0  0  0
   -2.5605    3.1786    1.1403 N   0  0  0  0  0  0  0  0  0  0  0  0
   -3.2112    2.0166    0.9853 C   0  0  0  0  0  0  0  0  0  0  0  0
   -4.4147    1.7325    1.7237 N   0  0  0  0  0  0  0  0  0  0  0  0
   -2.7649    1.0212    0.1118 C   0  0  0  0  0  0  0  0  0  0  0  0
   -3.4983   -0.2264    0.0049 C   0  0  0  0  0  0  0  0  0  0  0  0
   -4.7391   -0.3226   -0.6413 C   0  0  0  0  0  0  0  0  0  0  0  0
   -5.4010   -1.5255   -0.7140 C   0  0  0  0  0  0  0  0  0  0  0  0
   -4.8585   -2.6936   -0.1448 C   0  0  0  0  0  0  0  0  0  0  0  0
   -3.6432   -2.5818    0.4826 C   0  0  0  0  0  0  0  0  0  0  0  0
   -2.8167   -3.9368    1.2528 Cl  0  0  0  0  0  0  0  0  0  0  0  0
   -2.9933   -1.3707    0.5468 C   0  0  0  0  0  0  0  0  0  0  0  0
   -1.6255    1.2857   -0.5847 C   0  0  0  0  0  0  0  0  0  0  0  0
   -1.0737    0.2860   -1.5360 C   0  0  0  0  0  0  0  0  0  0  0  0
   -0.4648   -0.8900   -0.7543 C   0  0  0  0  0  0  0  0  0  0  0  0
    0.5013   -0.4932    0.1275 O   0  0  0  0  0  0  0  0  0  0  0  0
    1.5435    0.1422   -0.5371 C   0  0  0  0  0  0  0  0  0  0  0  0
    2.5339    0.5938    0.5379 C   0  0  0  0  0  0  0  0  0  0  0  0
    3.0025   -0.6406    1.2972 C   0  0  0  0  0  0  0  0  0  0  0  0
    3.6865   -1.5547    0.4316 O   0  0  0  0  0  0  0  0  0  0  0  0
    4.8403   -1.1608   -0.2222 C   0  0  0  0  0  0  0  0  0  0  0  0
    5.3559    0.1004   -0.0700 C   0  0  0  0  0  0  0  0  0  0  0  0
    6.5064    0.5461   -0.7049 C   0  0  0  0  0  0  0  0  0  0  0  0
    7.1305   -0.3887   -1.5294 C   0  0  0  0  0  0  0  0  0  0  0  0
    6.6329   -1.6313   -1.6875 C   0  0  0  0  0  0  0  0  0  0  0  0
    5.4776   -2.0537   -1.0400 C   0  0  0  0  0  0  0  0  0  0  0  0
   -1.0002    2.4786   -0.3912 N   0  0  0  0  0  0  0  0  0  0  0  0
  1  2  1  0
  2  3  2  0
  3  4  1  0
  4  5  1  0
  4  6  2  0
  6  7  1  0
  7  8  2  0
  8  9  1  0
  9 10  2  0
 10 11  1  0
 11 12  1  0
 11 13  2  0
  6 14  1  0
 14 15  1  0
 15 16  1  0
 16 17  1  0
 17 18  1  0
 18 19  1  0
 19 20  1  0
 20 21  1  0
 21 22  1  0
 22 23  2  0
 23 24  1  0
 24 25  2  0
 25 26  1  0
 26 27  2  0
 14 28  2  0
 28  2  1  0
 13  7  1  0
 27 22  1  0
M  END
>  <zinc_id>  (387) 
ZINC000013472732

>  <ortholog_name>  (387) 
DRTS_PLAFK

>  <gene_name>  (387) 
DRTS_PLAFK

>  <affinity>  (387) 
9.15

>  <chembldocid>  (387) 
17662

>  <title>  (387) 
None

>  <reference.pubmed_id>  (387) 
14736247

>  <reference.doi>  (387) 
None

>  <reference.chembl_id>  (387) 
CHEMBL1138835

>  <reference.journal>  (387) 
J. Med. Chem.

>  <reference.year>  (387) 
2004

$$$$

     RDKit          3D

 28 30  0  0  0  0  0  0  0  0999 V2000
   -0.7196    4.6599    0.5932 N   0  0  0  0  0  0  0  0  0  0  0  0
   -1.4258    3.4287    0.4423 C   0  0  0  0  0  0  0  0  0  0  0  0
   -2.5605    3.1786    1.1403 N   0  0  0  0  0  0  0  0  0  0  0  0
   -3.2112    2.0166    0.9853 C   0  0  0  0  0  0  0  0  0  0  0  0
   -4.4147    1.7325    1.7237 N   0  0  0  0  0  0  0  0  0  0  0  0
   -2.7649    1.0212    0.1118 C   0  0  0  0  0  0  0  0  0  0  0  0
   -3.4983   -0.2264    0.0049 C   0  0  0  0  0  0  0  0  0  0  0  0
   -4.7391   -0.3226   -0.6413 C   0  0  0  0  0  0  0  0  0  0  0  0
   -5.4010   -1.5255   -0.7140 C   0  0  0  0  0  0  0  0  0  0  0  0
   -4.8585   -2.6936   -0.1448 C   0  0  0  0  0  0  0  0  0  0  0  0
   -3.6432   -2.5818    0.4826 C   0  0  0  0  0  0  0  0  0  0  0  0
   -2.8167   -3.9368    1.2528 Cl  0  0  0  0  0  0  0  0  0  0  0  0
   -2.9933   -1.3707    0.5468 C   0  0  0  0  0  0  0  0  0  0  0  0
   -1.6255    1.2857   -0.5847 C   0  0  0  0  0  0  0  0  0  0  0  0
   -1.0737    0.2860   -1.5360 C   0  0  0  0  0  0  0  0  0  0  0  0
   -0.4648   -0.8900   -0.7543 C   0  0  0  0  0  0  0  0  0  0  0  0
    0.5013   -0.4932    0.1275 O   0  0  0  0  0  0  0  0  0  0  0  0
    1.5435    0.1422   -0.5371 C   0  0  0  0  0  0  0  0  0  0  0  0
    2.5339    0.5938    0.5379 C   0  0  0  0  0  0  0  0  0  0  0  0
    3.0025   -0.6406    1.2972 C   0  0  0  0  0  0  0  0  0  0  0  0
    3.6865   -1.5547    0.4316 O   0  0  0  0  0  0  0  0  0  0  0  0
    4.8403   -1.1608   -0.2222 C   0  0  0  0  0  0  0  0  0  0  0  0
    5.3559    0.1004   -0.0700 C   0  0  0  0  0  0  0  0  0  0  0  0
    6.5064    0.5461   -0.7049 C   0  0  0  0  0  0  0  0  0  0  0  0
    7.1305   -0.3887   -1.5294 C   0  0  0  0  0  0  0  0  0  0  0  0
    6.6329   -1.6313   -1.6875 C   0  0  0  0  0  0  0  0  0  0  0  0
    5.4776   -2.0537   -1.0400 C   0  0  0  0  0  0  0  0  0  0  0  0
   -1.0002    2.4786   -0.3912 N   0  0  0  0  0  0  0  0  0  0  0  0
  1  2  1  0
  2  3  2  0
  3  4  1  0
  4  5  1  0
  4  6  2  0
  6  7  1  0
  7  8  2  0
  8  9  1  0
  9 10  2  0
 10 11  1  0
 11 12  1  0
 11 13  2  0
  6 14  1  0
 14 15  1  0
 15 16  1  0
 16 17  1  0
 17 18  1  0
 18 19  1  0
 19 20  1  0
 20 21  1  0
 21 22  1  0
 22 23  2  0
 23 24  1  0
 24 25  2  0
 25 26  1  0
 26 27  2  0
 14 28  2  0
 28  2  1  0
 13  7  1  0
 27 22  1  0
M  END
>  <zinc_id>  (388) 
ZINC000013472732

>  <ortholog_name>  (388) 
DRTS_PLAFK

>  <gene_name>  (388) 
DRTS_PLAFK

>  <affinity>  (388) 
8.89

>  <chembldocid>  (388) 
17662

>  <title>  (388) 
None

>  <reference.pubmed_id>  (388) 
14736247

>  <reference.doi>  (388) 
None

>  <reference.chembl_id>  (388) 
CHEMBL1138835

>  <reference.journal>  (388) 
J. Med. Chem.

>  <reference.year>  (388) 
2004

$$$$

     RDKit          3D

 28 30  0  0  0  0  0  0  0  0999 V2000
   -0.7196    4.6599    0.5932 N   0  0  0  0  0  0  0  0  0  0  0  0
   -1.4258    3.4287    0.4423 C   0  0  0  0  0  0  0  0  0  0  0  0
   -2.5605    3.1786    1.1403 N   0  0  0  0  0  0  0  0  0  0  0  0
   -3.2112    2.0166    0.9853 C   0  0  0  0  0  0  0  0  0  0  0  0
   -4.4147    1.7325    1.7237 N   0  0  0  0  0  0  0  0  0  0  0  0
   -2.7649    1.0212    0.1118 C   0  0  0  0  0  0  0  0  0  0  0  0
   -3.4983   -0.2264    0.0049 C   0  0  0  0  0  0  0  0  0  0  0  0
   -4.7391   -0.3226   -0.6413 C   0  0  0  0  0  0  0  0  0  0  0  0
   -5.4010   -1.5255   -0.7140 C   0  0  0  0  0  0  0  0  0  0  0  0
   -4.8585   -2.6936   -0.1448 C   0  0  0  0  0  0  0  0  0  0  0  0
   -3.6432   -2.5818    0.4826 C   0  0  0  0  0  0  0  0  0  0  0  0
   -2.8167   -3.9368    1.2528 Cl  0  0  0  0  0  0  0  0  0  0  0  0
   -2.9933   -1.3707    0.5468 C   0  0  0  0  0  0  0  0  0  0  0  0
   -1.6255    1.2857   -0.5847 C   0  0  0  0  0  0  0  0  0  0  0  0
   -1.0737    0.2860   -1.5360 C   0  0  0  0  0  0  0  0  0  0  0  0
   -0.4648   -0.8900   -0.7543 C   0  0  0  0  0  0  0  0  0  0  0  0
    0.5013   -0.4932    0.1275 O   0  0  0  0  0  0  0  0  0  0  0  0
    1.5435    0.1422   -0.5371 C   0  0  0  0  0  0  0  0  0  0  0  0
    2.5339    0.5938    0.5379 C   0  0  0  0  0  0  0  0  0  0  0  0
    3.0025   -0.6406    1.2972 C   0  0  0  0  0  0  0  0  0  0  0  0
    3.6865   -1.5547    0.4316 O   0  0  0  0  0  0  0  0  0  0  0  0
    4.8403   -1.1608   -0.2222 C   0  0  0  0  0  0  0  0  0  0  0  0
    5.3559    0.1004   -0.0700 C   0  0  0  0  0  0  0  0  0  0  0  0
    6.5064    0.5461   -0.7049 C   0  0  0  0  0  0  0  0  0  0  0  0
    7.1305   -0.3887   -1.5294 C   0  0  0  0  0  0  0  0  0  0  0  0
    6.6329   -1.6313   -1.6875 C   0  0  0  0  0  0  0  0  0  0  0  0
    5.4776   -2.0537   -1.0400 C   0  0  0  0  0  0  0  0  0  0  0  0
   -1.0002    2.4786   -0.3912 N   0  0  0  0  0  0  0  0  0  0  0  0
  1  2  1  0
  2  3  2  0
  3  4  1  0
  4  5  1  0
  4  6  2  0
  6  7  1  0
  7  8  2  0
  8  9  1  0
  9 10  2  0
 10 11  1  0
 11 12  1  0
 11 13  2  0
  6 14  1  0
 14 15  1  0
 15 16  1  0
 16 17  1  0
 17 18  1  0
 18 19  1  0
 19 20  1  0
 20 21  1  0
 21 22  1  0
 22 23  2  0
 23 24  1  0
 24 25  2  0
 25 26  1  0
 26 27  2  0
 14 28  2  0
 28  2  1  0
 13  7  1  0
 27 22  1  0
M  END
>  <zinc_id>  (389) 
ZINC000013472732

>  <ortholog_name>  (389) 
DRTS_PLAFK

>  <gene_name>  (389) 
DRTS_PLAFK

>  <affinity>  (389) 
8.77

>  <chembldocid>  (389) 
17662

>  <title>  (389) 
None

>  <reference.pubmed_id>  (389) 
14736247

>  <reference.doi>  (389) 
None

>  <reference.chembl_id>  (389) 
CHEMBL1138835

>  <reference.journal>  (389) 
J. Med. Chem.

>  <reference.year>  (389) 
2004

$$$$

     RDKit          3D

 28 30  0  0  0  0  0  0  0  0999 V2000
   -0.7196    4.6599    0.5932 N   0  0  0  0  0  0  0  0  0  0  0  0
   -1.4258    3.4287    0.4423 C   0  0  0  0  0  0  0  0  0  0  0  0
   -2.5605    3.1786    1.1403 N   0  0  0  0  0  0  0  0  0  0  0  0
   -3.2112    2.0166    0.9853 C   0  0  0  0  0  0  0  0  0  0  0  0
   -4.4147    1.7325    1.7237 N   0  0  0  0  0  0  0  0  0  0  0  0
   -2.7649    1.0212    0.1118 C   0  0  0  0  0  0  0  0  0  0  0  0
   -3.4983   -0.2264    0.0049 C   0  0  0  0  0  0  0  0  0  0  0  0
   -4.7391   -0.3226   -0.6413 C   0  0  0  0  0  0  0  0  0  0  0  0
   -5.4010   -1.5255   -0.7140 C   0  0  0  0  0  0  0  0  0  0  0  0
   -4.8585   -2.6936   -0.1448 C   0  0  0  0  0  0  0  0  0  0  0  0
   -3.6432   -2.5818    0.4826 C   0  0  0  0  0  0  0  0  0  0  0  0
   -2.8167   -3.9368    1.2528 Cl  0  0  0  0  0  0  0  0  0  0  0  0
   -2.9933   -1.3707    0.5468 C   0  0  0  0  0  0  0  0  0  0  0  0
   -1.6255    1.2857   -0.5847 C   0  0  0  0  0  0  0  0  0  0  0  0
   -1.0737    0.2860   -1.5360 C   0  0  0  0  0  0  0  0  0  0  0  0
   -0.4648   -0.8900   -0.7543 C   0  0  0  0  0  0  0  0  0  0  0  0
    0.5013   -0.4932    0.1275 O   0  0  0  0  0  0  0  0  0  0  0  0
    1.5435    0.1422   -0.5371 C   0  0  0  0  0  0  0  0  0  0  0  0
    2.5339    0.5938    0.5379 C   0  0  0  0  0  0  0  0  0  0  0  0
    3.0025   -0.6406    1.2972 C   0  0  0  0  0  0  0  0  0  0  0  0
    3.6865   -1.5547    0.4316 O   0  0  0  0  0  0  0  0  0  0  0  0
    4.8403   -1.1608   -0.2222 C   0  0  0  0  0  0  0  0  0  0  0  0
    5.3559    0.1004   -0.0700 C   0  0  0  0  0  0  0  0  0  0  0  0
    6.5064    0.5461   -0.7049 C   0  0  0  0  0  0  0  0  0  0  0  0
    7.1305   -0.3887   -1.5294 C   0  0  0  0  0  0  0  0  0  0  0  0
    6.6329   -1.6313   -1.6875 C   0  0  0  0  0  0  0  0  0  0  0  0
    5.4776   -2.0537   -1.0400 C   0  0  0  0  0  0  0  0  0  0  0  0
   -1.0002    2.4786   -0.3912 N   0  0  0  0  0  0  0  0  0  0  0  0
  1  2  1  0
  2  3  2  0
  3  4  1  0
  4  5  1  0
  4  6  2  0
  6  7  1  0
  7  8  2  0
  8  9  1  0
  9 10  2  0
 10 11  1  0
 11 12  1  0
 11 13  2  0
  6 14  1  0
 14 15  1  0
 15 16  1  0
 16 17  1  0
 17 18  1  0
 18 19  1  0
 19 20  1  0
 20 21  1  0
 21 22  1  0
 22 23  2  0
 23 24  1  0
 24 25  2  0
 25 26  1  0
 26 27  2  0
 14 28  2  0
 28  2  1  0
 13  7  1  0
 27 22  1  0
M  END
>  <zinc_id>  (390) 
ZINC000013472732

>  <ortholog_name>  (390) 
DRTS_PLAFK

>  <gene_name>  (390) 
DRTS_PLAFK

>  <affinity>  (390) 
8.74

>  <chembldocid>  (390) 
16871

>  <title>  (390) 
None

>  <reference.pubmed_id>  (390) 
11881993

>  <reference.doi>  (390) 
None

>  <reference.chembl_id>  (390) 
CHEMBL1135602

>  <reference.journal>  (390) 
J. Med. Chem.

>  <reference.year>  (390) 
2002

$$$$

     RDKit          3D

 28 30  0  0  0  0  0  0  0  0999 V2000
   -0.7196    4.6599    0.5932 N   0  0  0  0  0  0  0  0  0  0  0  0
   -1.4258    3.4287    0.4423 C   0  0  0  0  0  0  0  0  0  0  0  0
   -2.5605    3.1786    1.1403 N   0  0  0  0  0  0  0  0  0  0  0  0
   -3.2112    2.0166    0.9853 C   0  0  0  0  0  0  0  0  0  0  0  0
   -4.4147    1.7325    1.7237 N   0  0  0  0  0  0  0  0  0  0  0  0
   -2.7649    1.0212    0.1118 C   0  0  0  0  0  0  0  0  0  0  0  0
   -3.4983   -0.2264    0.0049 C   0  0  0  0  0  0  0  0  0  0  0  0
   -4.7391   -0.3226   -0.6413 C   0  0  0  0  0  0  0  0  0  0  0  0
   -5.4010   -1.5255   -0.7140 C   0  0  0  0  0  0  0  0  0  0  0  0
   -4.8585   -2.6936   -0.1448 C   0  0  0  0  0  0  0  0  0  0  0  0
   -3.6432   -2.5818    0.4826 C   0  0  0  0  0  0  0  0  0  0  0  0
   -2.8167   -3.9368    1.2528 Cl  0  0  0  0  0  0  0  0  0  0  0  0
   -2.9933   -1.3707    0.5468 C   0  0  0  0  0  0  0  0  0  0  0  0
   -1.6255    1.2857   -0.5847 C   0  0  0  0  0  0  0  0  0  0  0  0
   -1.0737    0.2860   -1.5360 C   0  0  0  0  0  0  0  0  0  0  0  0
   -0.4648   -0.8900   -0.7543 C   0  0  0  0  0  0  0  0  0  0  0  0
    0.5013   -0.4932    0.1275 O   0  0  0  0  0  0  0  0  0  0  0  0
    1.5435    0.1422   -0.5371 C   0  0  0  0  0  0  0  0  0  0  0  0
    2.5339    0.5938    0.5379 C   0  0  0  0  0  0  0  0  0  0  0  0
    3.0025   -0.6406    1.2972 C   0  0  0  0  0  0  0  0  0  0  0  0
    3.6865   -1.5547    0.4316 O   0  0  0  0  0  0  0  0  0  0  0  0
    4.8403   -1.1608   -0.2222 C   0  0  0  0  0  0  0  0  0  0  0  0
    5.3559    0.1004   -0.0700 C   0  0  0  0  0  0  0  0  0  0  0  0
    6.5064    0.5461   -0.7049 C   0  0  0  0  0  0  0  0  0  0  0  0
    7.1305   -0.3887   -1.5294 C   0  0  0  0  0  0  0  0  0  0  0  0
    6.6329   -1.6313   -1.6875 C   0  0  0  0  0  0  0  0  0  0  0  0
    5.4776   -2.0537   -1.0400 C   0  0  0  0  0  0  0  0  0  0  0  0
   -1.0002    2.4786   -0.3912 N   0  0  0  0  0  0  0  0  0  0  0  0
  1  2  1  0
  2  3  2  0
  3  4  1  0
  4  5  1  0
  4  6  2  0
  6  7  1  0
  7  8  2  0
  8  9  1  0
  9 10  2  0
 10 11  1  0
 11 12  1  0
 11 13  2  0
  6 14  1  0
 14 15  1  0
 15 16  1  0
 16 17  1  0
 17 18  1  0
 18 19  1  0
 19 20  1  0
 20 21  1  0
 21 22  1  0
 22 23  2  0
 23 24  1  0
 24 25  2  0
 25 26  1  0
 26 27  2  0
 14 28  2  0
 28  2  1  0
 13  7  1  0
 27 22  1  0
M  END
>  <zinc_id>  (391) 
ZINC000013472732

>  <ortholog_name>  (391) 
DRTS_PLAFK

>  <gene_name>  (391) 
DRTS_PLAFK

>  <affinity>  (391) 
8.72

>  <chembldocid>  (391) 
16871

>  <title>  (391) 
None

>  <reference.pubmed_id>  (391) 
11881993

>  <reference.doi>  (391) 
None

>  <reference.chembl_id>  (391) 
CHEMBL1135602

>  <reference.journal>  (391) 
J. Med. Chem.

>  <reference.year>  (391) 
2002

$$$$

     RDKit          3D

 28 30  0  0  0  0  0  0  0  0999 V2000
   -0.7196    4.6599    0.5932 N   0  0  0  0  0  0  0  0  0  0  0  0
   -1.4258    3.4287    0.4423 C   0  0  0  0  0  0  0  0  0  0  0  0
   -2.5605    3.1786    1.1403 N   0  0  0  0  0  0  0  0  0  0  0  0
   -3.2112    2.0166    0.9853 C   0  0  0  0  0  0  0  0  0  0  0  0
   -4.4147    1.7325    1.7237 N   0  0  0  0  0  0  0  0  0  0  0  0
   -2.7649    1.0212    0.1118 C   0  0  0  0  0  0  0  0  0  0  0  0
   -3.4983   -0.2264    0.0049 C   0  0  0  0  0  0  0  0  0  0  0  0
   -4.7391   -0.3226   -0.6413 C   0  0  0  0  0  0  0  0  0  0  0  0
   -5.4010   -1.5255   -0.7140 C   0  0  0  0  0  0  0  0  0  0  0  0
   -4.8585   -2.6936   -0.1448 C   0  0  0  0  0  0  0  0  0  0  0  0
   -3.6432   -2.5818    0.4826 C   0  0  0  0  0  0  0  0  0  0  0  0
   -2.8167   -3.9368    1.2528 Cl  0  0  0  0  0  0  0  0  0  0  0  0
   -2.9933   -1.3707    0.5468 C   0  0  0  0  0  0  0  0  0  0  0  0
   -1.6255    1.2857   -0.5847 C   0  0  0  0  0  0  0  0  0  0  0  0
   -1.0737    0.2860   -1.5360 C   0  0  0  0  0  0  0  0  0  0  0  0
   -0.4648   -0.8900   -0.7543 C   0  0  0  0  0  0  0  0  0  0  0  0
    0.5013   -0.4932    0.1275 O   0  0  0  0  0  0  0  0  0  0  0  0
    1.5435    0.1422   -0.5371 C   0  0  0  0  0  0  0  0  0  0  0  0
    2.5339    0.5938    0.5379 C   0  0  0  0  0  0  0  0  0  0  0  0
    3.0025   -0.6406    1.2972 C   0  0  0  0  0  0  0  0  0  0  0  0
    3.6865   -1.5547    0.4316 O   0  0  0  0  0  0  0  0  0  0  0  0
    4.8403   -1.1608   -0.2222 C   0  0  0  0  0  0  0  0  0  0  0  0
    5.3559    0.1004   -0.0700 C   0  0  0  0  0  0  0  0  0  0  0  0
    6.5064    0.5461   -0.7049 C   0  0  0  0  0  0  0  0  0  0  0  0
    7.1305   -0.3887   -1.5294 C   0  0  0  0  0  0  0  0  0  0  0  0
    6.6329   -1.6313   -1.6875 C   0  0  0  0  0  0  0  0  0  0  0  0
    5.4776   -2.0537   -1.0400 C   0  0  0  0  0  0  0  0  0  0  0  0
   -1.0002    2.4786   -0.3912 N   0  0  0  0  0  0  0  0  0  0  0  0
  1  2  1  0
  2  3  2  0
  3  4  1  0
  4  5  1  0
  4  6  2  0
  6  7  1  0
  7  8  2  0
  8  9  1  0
  9 10  2  0
 10 11  1  0
 11 12  1  0
 11 13  2  0
  6 14  1  0
 14 15  1  0
 15 16  1  0
 16 17  1  0
 17 18  1  0
 18 19  1  0
 19 20  1  0
 20 21  1  0
 21 22  1  0
 22 23  2  0
 23 24  1  0
 24 25  2  0
 25 26  1  0
 26 27  2  0
 14 28  2  0
 28  2  1  0
 13  7  1  0
 27 22  1  0
M  END
>  <zinc_id>  (392) 
ZINC000013472732

>  <ortholog_name>  (392) 
DRTS_PLAFK

>  <gene_name>  (392) 
DRTS_PLAFK

>  <affinity>  (392) 
7.89

>  <chembldocid>  (392) 
21047

>  <title>  (392) 
None

>  <reference.pubmed_id>  (392) 
15293997

>  <reference.doi>  (392) 
None

>  <reference.chembl_id>  (392) 
CHEMBL1138679

>  <reference.journal>  (392) 
J. Med. Chem.

>  <reference.year>  (392) 
2004

$$$$

     RDKit          3D

 28 30  0  0  0  0  0  0  0  0999 V2000
   -0.7196    4.6599    0.5932 N   0  0  0  0  0  0  0  0  0  0  0  0
   -1.4258    3.4287    0.4423 C   0  0  0  0  0  0  0  0  0  0  0  0
   -2.5605    3.1786    1.1403 N   0  0  0  0  0  0  0  0  0  0  0  0
   -3.2112    2.0166    0.9853 C   0  0  0  0  0  0  0  0  0  0  0  0
   -4.4147    1.7325    1.7237 N   0  0  0  0  0  0  0  0  0  0  0  0
   -2.7649    1.0212    0.1118 C   0  0  0  0  0  0  0  0  0  0  0  0
   -3.4983   -0.2264    0.0049 C   0  0  0  0  0  0  0  0  0  0  0  0
   -4.7391   -0.3226   -0.6413 C   0  0  0  0  0  0  0  0  0  0  0  0
   -5.4010   -1.5255   -0.7140 C   0  0  0  0  0  0  0  0  0  0  0  0
   -4.8585   -2.6936   -0.1448 C   0  0  0  0  0  0  0  0  0  0  0  0
   -3.6432   -2.5818    0.4826 C   0  0  0  0  0  0  0  0  0  0  0  0
   -2.8167   -3.9368    1.2528 Cl  0  0  0  0  0  0  0  0  0  0  0  0
   -2.9933   -1.3707    0.5468 C   0  0  0  0  0  0  0  0  0  0  0  0
   -1.6255    1.2857   -0.5847 C   0  0  0  0  0  0  0  0  0  0  0  0
   -1.0737    0.2860   -1.5360 C   0  0  0  0  0  0  0  0  0  0  0  0
   -0.4648   -0.8900   -0.7543 C   0  0  0  0  0  0  0  0  0  0  0  0
    0.5013   -0.4932    0.1275 O   0  0  0  0  0  0  0  0  0  0  0  0
    1.5435    0.1422   -0.5371 C   0  0  0  0  0  0  0  0  0  0  0  0
    2.5339    0.5938    0.5379 C   0  0  0  0  0  0  0  0  0  0  0  0
    3.0025   -0.6406    1.2972 C   0  0  0  0  0  0  0  0  0  0  0  0
    3.6865   -1.5547    0.4316 O   0  0  0  0  0  0  0  0  0  0  0  0
    4.8403   -1.1608   -0.2222 C   0  0  0  0  0  0  0  0  0  0  0  0
    5.3559    0.1004   -0.0700 C   0  0  0  0  0  0  0  0  0  0  0  0
    6.5064    0.5461   -0.7049 C   0  0  0  0  0  0  0  0  0  0  0  0
    7.1305   -0.3887   -1.5294 C   0  0  0  0  0  0  0  0  0  0  0  0
    6.6329   -1.6313   -1.6875 C   0  0  0  0  0  0  0  0  0  0  0  0
    5.4776   -2.0537   -1.0400 C   0  0  0  0  0  0  0  0  0  0  0  0
   -1.0002    2.4786   -0.3912 N   0  0  0  0  0  0  0  0  0  0  0  0
  1  2  1  0
  2  3  2  0
  3  4  1  0
  4  5  1  0
  4  6  2  0
  6  7  1  0
  7  8  2  0
  8  9  1  0
  9 10  2  0
 10 11  1  0
 11 12  1  0
 11 13  2  0
  6 14  1  0
 14 15  1  0
 15 16  1  0
 16 17  1  0
 17 18  1  0
 18 19  1  0
 19 20  1  0
 20 21  1  0
 21 22  1  0
 22 23  2  0
 23 24  1  0
 24 25  2  0
 25 26  1  0
 26 27  2  0
 14 28  2  0
 28  2  1  0
 13  7  1  0
 27 22  1  0
M  END
>  <zinc_id>  (393) 
ZINC000013472732

>  <ortholog_name>  (393) 
DRTS_PLAFK

>  <gene_name>  (393) 
DRTS_PLAFK

>  <affinity>  (393) 
5.54

>  <chembldocid>  (393) 
17662

>  <title>  (393) 
None

>  <reference.pubmed_id>  (393) 
14736247

>  <reference.doi>  (393) 
None

>  <reference.chembl_id>  (393) 
CHEMBL1138835

>  <reference.journal>  (393) 
J. Med. Chem.

>  <reference.year>  (393) 
2004

$$$$

     RDKit          3D

 28 30  0  0  0  0  0  0  0  0999 V2000
   -0.7196    4.6599    0.5932 N   0  0  0  0  0  0  0  0  0  0  0  0
   -1.4258    3.4287    0.4423 C   0  0  0  0  0  0  0  0  0  0  0  0
   -2.5605    3.1786    1.1403 N   0  0  0  0  0  0  0  0  0  0  0  0
   -3.2112    2.0166    0.9853 C   0  0  0  0  0  0  0  0  0  0  0  0
   -4.4147    1.7325    1.7237 N   0  0  0  0  0  0  0  0  0  0  0  0
   -2.7649    1.0212    0.1118 C   0  0  0  0  0  0  0  0  0  0  0  0
   -3.4983   -0.2264    0.0049 C   0  0  0  0  0  0  0  0  0  0  0  0
   -4.7391   -0.3226   -0.6413 C   0  0  0  0  0  0  0  0  0  0  0  0
   -5.4010   -1.5255   -0.7140 C   0  0  0  0  0  0  0  0  0  0  0  0
   -4.8585   -2.6936   -0.1448 C   0  0  0  0  0  0  0  0  0  0  0  0
   -3.6432   -2.5818    0.4826 C   0  0  0  0  0  0  0  0  0  0  0  0
   -2.8167   -3.9368    1.2528 Cl  0  0  0  0  0  0  0  0  0  0  0  0
   -2.9933   -1.3707    0.5468 C   0  0  0  0  0  0  0  0  0  0  0  0
   -1.6255    1.2857   -0.5847 C   0  0  0  0  0  0  0  0  0  0  0  0
   -1.0737    0.2860   -1.5360 C   0  0  0  0  0  0  0  0  0  0  0  0
   -0.4648   -0.8900   -0.7543 C   0  0  0  0  0  0  0  0  0  0  0  0
    0.5013   -0.4932    0.1275 O   0  0  0  0  0  0  0  0  0  0  0  0
    1.5435    0.1422   -0.5371 C   0  0  0  0  0  0  0  0  0  0  0  0
    2.5339    0.5938    0.5379 C   0  0  0  0  0  0  0  0  0  0  0  0
    3.0025   -0.6406    1.2972 C   0  0  0  0  0  0  0  0  0  0  0  0
    3.6865   -1.5547    0.4316 O   0  0  0  0  0  0  0  0  0  0  0  0
    4.8403   -1.1608   -0.2222 C   0  0  0  0  0  0  0  0  0  0  0  0
    5.3559    0.1004   -0.0700 C   0  0  0  0  0  0  0  0  0  0  0  0
    6.5064    0.5461   -0.7049 C   0  0  0  0  0  0  0  0  0  0  0  0
    7.1305   -0.3887   -1.5294 C   0  0  0  0  0  0  0  0  0  0  0  0
    6.6329   -1.6313   -1.6875 C   0  0  0  0  0  0  0  0  0  0  0  0
    5.4776   -2.0537   -1.0400 C   0  0  0  0  0  0  0  0  0  0  0  0
   -1.0002    2.4786   -0.3912 N   0  0  0  0  0  0  0  0  0  0  0  0
  1  2  1  0
  2  3  2  0
  3  4  1  0
  4  5  1  0
  4  6  2  0
  6  7  1  0
  7  8  2  0
  8  9  1  0
  9 10  2  0
 10 11  1  0
 11 12  1  0
 11 13  2  0
  6 14  1  0
 14 15  1  0
 15 16  1  0
 16 17  1  0
 17 18  1  0
 18 19  1  0
 19 20  1  0
 20 21  1  0
 21 22  1  0
 22 23  2  0
 23 24  1  0
 24 25  2  0
 25 26  1  0
 26 27  2  0
 14 28  2  0
 28  2  1  0
 13  7  1  0
 27 22  1  0
M  END
>  <zinc_id>  (394) 
ZINC000013472732

>  <ortholog_name>  (394) 
DRTS_PLAFK

>  <gene_name>  (394) 
DRTS_PLAFK

>  <affinity>  (394) 
5.48

>  <chembldocid>  (394) 
16871

>  <title>  (394) 
None

>  <reference.pubmed_id>  (394) 
11881993

>  <reference.doi>  (394) 
None

>  <reference.chembl_id>  (394) 
CHEMBL1135602

>  <reference.journal>  (394) 
J. Med. Chem.

>  <reference.year>  (394) 
2002

$$$$

     RDKit          3D

 28 30  0  0  0  0  0  0  0  0999 V2000
   -0.7196    4.6599    0.5932 N   0  0  0  0  0  0  0  0  0  0  0  0
   -1.4258    3.4287    0.4423 C   0  0  0  0  0  0  0  0  0  0  0  0
   -2.5605    3.1786    1.1403 N   0  0  0  0  0  0  0  0  0  0  0  0
   -3.2112    2.0166    0.9853 C   0  0  0  0  0  0  0  0  0  0  0  0
   -4.4147    1.7325    1.7237 N   0  0  0  0  0  0  0  0  0  0  0  0
   -2.7649    1.0212    0.1118 C   0  0  0  0  0  0  0  0  0  0  0  0
   -3.4983   -0.2264    0.0049 C   0  0  0  0  0  0  0  0  0  0  0  0
   -4.7391   -0.3226   -0.6413 C   0  0  0  0  0  0  0  0  0  0  0  0
   -5.4010   -1.5255   -0.7140 C   0  0  0  0  0  0  0  0  0  0  0  0
   -4.8585   -2.6936   -0.1448 C   0  0  0  0  0  0  0  0  0  0  0  0
   -3.6432   -2.5818    0.4826 C   0  0  0  0  0  0  0  0  0  0  0  0
   -2.8167   -3.9368    1.2528 Cl  0  0  0  0  0  0  0  0  0  0  0  0
   -2.9933   -1.3707    0.5468 C   0  0  0  0  0  0  0  0  0  0  0  0
   -1.6255    1.2857   -0.5847 C   0  0  0  0  0  0  0  0  0  0  0  0
   -1.0737    0.2860   -1.5360 C   0  0  0  0  0  0  0  0  0  0  0  0
   -0.4648   -0.8900   -0.7543 C   0  0  0  0  0  0  0  0  0  0  0  0
    0.5013   -0.4932    0.1275 O   0  0  0  0  0  0  0  0  0  0  0  0
    1.5435    0.1422   -0.5371 C   0  0  0  0  0  0  0  0  0  0  0  0
    2.5339    0.5938    0.5379 C   0  0  0  0  0  0  0  0  0  0  0  0
    3.0025   -0.6406    1.2972 C   0  0  0  0  0  0  0  0  0  0  0  0
    3.6865   -1.5547    0.4316 O   0  0  0  0  0  0  0  0  0  0  0  0
    4.8403   -1.1608   -0.2222 C   0  0  0  0  0  0  0  0  0  0  0  0
    5.3559    0.1004   -0.0700 C   0  0  0  0  0  0  0  0  0  0  0  0
    6.5064    0.5461   -0.7049 C   0  0  0  0  0  0  0  0  0  0  0  0
    7.1305   -0.3887   -1.5294 C   0  0  0  0  0  0  0  0  0  0  0  0
    6.6329   -1.6313   -1.6875 C   0  0  0  0  0  0  0  0  0  0  0  0
    5.4776   -2.0537   -1.0400 C   0  0  0  0  0  0  0  0  0  0  0  0
   -1.0002    2.4786   -0.3912 N   0  0  0  0  0  0  0  0  0  0  0  0
  1  2  1  0
  2  3  2  0
  3  4  1  0
  4  5  1  0
  4  6  2  0
  6  7  1  0
  7  8  2  0
  8  9  1  0
  9 10  2  0
 10 11  1  0
 11 12  1  0
 11 13  2  0
  6 14  1  0
 14 15  1  0
 15 16  1  0
 16 17  1  0
 17 18  1  0
 18 19  1  0
 19 20  1  0
 20 21  1  0
 21 22  1  0
 22 23  2  0
 23 24  1  0
 24 25  2  0
 25 26  1  0
 26 27  2  0
 14 28  2  0
 28  2  1  0
 13  7  1  0
 27 22  1  0
M  END
>  <zinc_id>  (395) 
ZINC000013472732

>  <ortholog_name>  (395) 
DRTS_PLAFK

>  <gene_name>  (395) 
DRTS_PLAFK

>  <affinity>  (395) 
6.46

>  <chembldocid>  (395) 
17662

>  <title>  (395) 
None

>  <reference.pubmed_id>  (395) 
14736247

>  <reference.doi>  (395) 
None

>  <reference.chembl_id>  (395) 
CHEMBL1138835

>  <reference.journal>  (395) 
J. Med. Chem.

>  <reference.year>  (395) 
2004

$$$$

     RDKit          3D

 28 30  0  0  0  0  0  0  0  0999 V2000
   -0.7196    4.6599    0.5932 N   0  0  0  0  0  0  0  0  0  0  0  0
   -1.4258    3.4287    0.4423 C   0  0  0  0  0  0  0  0  0  0  0  0
   -2.5605    3.1786    1.1403 N   0  0  0  0  0  0  0  0  0  0  0  0
   -3.2112    2.0166    0.9853 C   0  0  0  0  0  0  0  0  0  0  0  0
   -4.4147    1.7325    1.7237 N   0  0  0  0  0  0  0  0  0  0  0  0
   -2.7649    1.0212    0.1118 C   0  0  0  0  0  0  0  0  0  0  0  0
   -3.4983   -0.2264    0.0049 C   0  0  0  0  0  0  0  0  0  0  0  0
   -4.7391   -0.3226   -0.6413 C   0  0  0  0  0  0  0  0  0  0  0  0
   -5.4010   -1.5255   -0.7140 C   0  0  0  0  0  0  0  0  0  0  0  0
   -4.8585   -2.6936   -0.1448 C   0  0  0  0  0  0  0  0  0  0  0  0
   -3.6432   -2.5818    0.4826 C   0  0  0  0  0  0  0  0  0  0  0  0
   -2.8167   -3.9368    1.2528 Cl  0  0  0  0  0  0  0  0  0  0  0  0
   -2.9933   -1.3707    0.5468 C   0  0  0  0  0  0  0  0  0  0  0  0
   -1.6255    1.2857   -0.5847 C   0  0  0  0  0  0  0  0  0  0  0  0
   -1.0737    0.2860   -1.5360 C   0  0  0  0  0  0  0  0  0  0  0  0
   -0.4648   -0.8900   -0.7543 C   0  0  0  0  0  0  0  0  0  0  0  0
    0.5013   -0.4932    0.1275 O   0  0  0  0  0  0  0  0  0  0  0  0
    1.5435    0.1422   -0.5371 C   0  0  0  0  0  0  0  0  0  0  0  0
    2.5339    0.5938    0.5379 C   0  0  0  0  0  0  0  0  0  0  0  0
    3.0025   -0.6406    1.2972 C   0  0  0  0  0  0  0  0  0  0  0  0
    3.6865   -1.5547    0.4316 O   0  0  0  0  0  0  0  0  0  0  0  0
    4.8403   -1.1608   -0.2222 C   0  0  0  0  0  0  0  0  0  0  0  0
    5.3559    0.1004   -0.0700 C   0  0  0  0  0  0  0  0  0  0  0  0
    6.5064    0.5461   -0.7049 C   0  0  0  0  0  0  0  0  0  0  0  0
    7.1305   -0.3887   -1.5294 C   0  0  0  0  0  0  0  0  0  0  0  0
    6.6329   -1.6313   -1.6875 C   0  0  0  0  0  0  0  0  0  0  0  0
    5.4776   -2.0537   -1.0400 C   0  0  0  0  0  0  0  0  0  0  0  0
   -1.0002    2.4786   -0.3912 N   0  0  0  0  0  0  0  0  0  0  0  0
  1  2  1  0
  2  3  2  0
  3  4  1  0
  4  5  1  0
  4  6  2  0
  6  7  1  0
  7  8  2  0
  8  9  1  0
  9 10  2  0
 10 11  1  0
 11 12  1  0
 11 13  2  0
  6 14  1  0
 14 15  1  0
 15 16  1  0
 16 17  1  0
 17 18  1  0
 18 19  1  0
 19 20  1  0
 20 21  1  0
 21 22  1  0
 22 23  2  0
 23 24  1  0
 24 25  2  0
 25 26  1  0
 26 27  2  0
 14 28  2  0
 28  2  1  0
 13  7  1  0
 27 22  1  0
M  END
>  <zinc_id>  (396) 
ZINC000013472732

>  <ortholog_name>  (396) 
DRTS_PLAFK

>  <gene_name>  (396) 
DRTS_PLAFK

>  <affinity>  (396) 
5.35

>  <chembldocid>  (396) 
17662

>  <title>  (396) 
None

>  <reference.pubmed_id>  (396) 
14736247

>  <reference.doi>  (396) 
None

>  <reference.chembl_id>  (396) 
CHEMBL1138835

>  <reference.journal>  (396) 
J. Med. Chem.

>  <reference.year>  (396) 
2004

$$$$

     RDKit          3D

 28 30  0  0  0  0  0  0  0  0999 V2000
   -0.7196    4.6599    0.5932 N   0  0  0  0  0  0  0  0  0  0  0  0
   -1.4258    3.4287    0.4423 C   0  0  0  0  0  0  0  0  0  0  0  0
   -2.5605    3.1786    1.1403 N   0  0  0  0  0  0  0  0  0  0  0  0
   -3.2112    2.0166    0.9853 C   0  0  0  0  0  0  0  0  0  0  0  0
   -4.4147    1.7325    1.7237 N   0  0  0  0  0  0  0  0  0  0  0  0
   -2.7649    1.0212    0.1118 C   0  0  0  0  0  0  0  0  0  0  0  0
   -3.4983   -0.2264    0.0049 C   0  0  0  0  0  0  0  0  0  0  0  0
   -4.7391   -0.3226   -0.6413 C   0  0  0  0  0  0  0  0  0  0  0  0
   -5.4010   -1.5255   -0.7140 C   0  0  0  0  0  0  0  0  0  0  0  0
   -4.8585   -2.6936   -0.1448 C   0  0  0  0  0  0  0  0  0  0  0  0
   -3.6432   -2.5818    0.4826 C   0  0  0  0  0  0  0  0  0  0  0  0
   -2.8167   -3.9368    1.2528 Cl  0  0  0  0  0  0  0  0  0  0  0  0
   -2.9933   -1.3707    0.5468 C   0  0  0  0  0  0  0  0  0  0  0  0
   -1.6255    1.2857   -0.5847 C   0  0  0  0  0  0  0  0  0  0  0  0
   -1.0737    0.2860   -1.5360 C   0  0  0  0  0  0  0  0  0  0  0  0
   -0.4648   -0.8900   -0.7543 C   0  0  0  0  0  0  0  0  0  0  0  0
    0.5013   -0.4932    0.1275 O   0  0  0  0  0  0  0  0  0  0  0  0
    1.5435    0.1422   -0.5371 C   0  0  0  0  0  0  0  0  0  0  0  0
    2.5339    0.5938    0.5379 C   0  0  0  0  0  0  0  0  0  0  0  0
    3.0025   -0.6406    1.2972 C   0  0  0  0  0  0  0  0  0  0  0  0
    3.6865   -1.5547    0.4316 O   0  0  0  0  0  0  0  0  0  0  0  0
    4.8403   -1.1608   -0.2222 C   0  0  0  0  0  0  0  0  0  0  0  0
    5.3559    0.1004   -0.0700 C   0  0  0  0  0  0  0  0  0  0  0  0
    6.5064    0.5461   -0.7049 C   0  0  0  0  0  0  0  0  0  0  0  0
    7.1305   -0.3887   -1.5294 C   0  0  0  0  0  0  0  0  0  0  0  0
    6.6329   -1.6313   -1.6875 C   0  0  0  0  0  0  0  0  0  0  0  0
    5.4776   -2.0537   -1.0400 C   0  0  0  0  0  0  0  0  0  0  0  0
   -1.0002    2.4786   -0.3912 N   0  0  0  0  0  0  0  0  0  0  0  0
  1  2  1  0
  2  3  2  0
  3  4  1  0
  4  5  1  0
  4  6  2  0
  6  7  1  0
  7  8  2  0
  8  9  1  0
  9 10  2  0
 10 11  1  0
 11 12  1  0
 11 13  2  0
  6 14  1  0
 14 15  1  0
 15 16  1  0
 16 17  1  0
 17 18  1  0
 18 19  1  0
 19 20  1  0
 20 21  1  0
 21 22  1  0
 22 23  2  0
 23 24  1  0
 24 25  2  0
 25 26  1  0
 26 27  2  0
 14 28  2  0
 28  2  1  0
 13  7  1  0
 27 22  1  0
M  END
>  <zinc_id>  (397) 
ZINC000013472732

>  <ortholog_name>  (397) 
DRTS_PLAFK

>  <gene_name>  (397) 
DRTS_PLAFK

>  <affinity>  (397) 
5.34

>  <chembldocid>  (397) 
17662

>  <title>  (397) 
None

>  <reference.pubmed_id>  (397) 
14736247

>  <reference.doi>  (397) 
None

>  <reference.chembl_id>  (397) 
CHEMBL1138835

>  <reference.journal>  (397) 
J. Med. Chem.

>  <reference.year>  (397) 
2004

$$$$

     RDKit          3D

 27 29  0  0  0  0  0  0  0  0999 V2000
    0.1684   -3.3031   -1.3493 C   0  0  0  0  0  0  0  0  0  0  0  0
    0.9199   -2.1600   -1.0230 O   0  0  0  0  0  0  0  0  0  0  0  0
    0.2317   -0.9468   -0.9133 C   0  0  0  0  0  0  0  0  0  0  0  0
   -1.1424   -0.8657   -1.1172 C   0  0  0  0  0  0  0  0  0  0  0  0
   -1.8043    0.3387   -1.0049 C   0  0  0  0  0  0  0  0  0  0  0  0
   -3.2756    0.3937   -1.2286 C   0  0  0  0  0  0  0  0  0  0  0  0
   -4.0132    0.1910    0.0202 C   0  0  0  0  0  0  0  0  0  0  0  0
   -4.5979    1.2808    0.6556 C   0  0  0  0  0  0  0  0  0  0  0  0
   -5.2748    1.0953    1.8016 N   0  0  0  0  0  0  0  0  0  0  0  0
   -5.4177   -0.1111    2.3746 C   0  0  0  0  0  0  0  0  0  0  0  0
   -6.1502   -0.2213    3.5892 N   0  0  0  0  0  0  0  0  0  0  0  0
   -4.8517   -1.1864    1.7655 N   0  0  0  0  0  0  0  0  0  0  0  0
   -4.1582   -1.0426    0.6044 C   0  0  0  0  0  0  0  0  0  0  0  0
   -3.5668   -2.1876   -0.0258 N   0  0  0  0  0  0  0  0  0  0  0  0
   -1.0557    1.4517   -0.6847 C   0  0  0  0  0  0  0  0  0  0  0  0
    0.3146    1.3669   -0.4821 C   0  0  0  0  0  0  0  0  0  0  0  0
    1.0696    2.4890   -0.1592 O   0  0  0  0  0  0  0  0  0  0  0  0
    0.3961    3.7482   -0.0389 C   0  0  0  0  0  0  0  0  0  0  0  0
    0.9843    0.1662   -0.5925 C   0  0  0  0  0  0  0  0  0  0  0  0
    2.3293    0.0678   -0.3965 O   0  0  0  0  0  0  0  0  0  0  0  0
    3.3170    0.2146   -1.3791 C   0  0  0  0  0  0  0  0  0  0  0  0
    4.6858    0.0444   -0.8224 C   0  0  0  0  0  0  0  0  0  0  0  0
    5.8221    0.1870   -1.5756 C   0  0  0  0  0  0  0  0  0  0  0  0
    7.0477    0.0093   -0.9714 C   0  0  0  0  0  0  0  0  0  0  0  0
    7.1893   -0.3071    0.3627 C   0  0  0  0  0  0  0  0  0  0  0  0
    6.0308   -0.4417    1.0845 C   0  0  0  0  0  0  0  0  0  0  0  0
    4.8018   -0.2712    0.5116 C   0  0  0  0  0  0  0  0  0  0  0  0
  1  2  1  0
  2  3  1  0
  3  4  2  0
  4  5  1  0
  5  6  1  0
  6  7  1  0
  7  8  2  0
  8  9  1  0
  9 10  2  0
 10 11  1  0
 10 12  1  0
 12 13  2  0
 13 14  1  0
  5 15  2  0
 15 16  1  0
 16 17  1  0
 17 18  1  0
 16 19  2  0
 19 20  1  0
 20 21  1  0
 21 22  1  0
 22 23  2  0
 23 24  1  0
 24 25  2  0
 25 26  1  0
 26 27  2  0
 19  3  1  0
 27 22  1  0
 13  7  1  0
M  END
>  <zinc_id>  (398) 
ZINC000013472733

>  <ortholog_name>  (398) 
DRTS_PLAFK

>  <gene_name>  (398) 
DRTS_PLAFK

>  <affinity>  (398) 
8.38

>  <chembldocid>  (398) 
16871

>  <title>  (398) 
None

>  <reference.pubmed_id>  (398) 
11881993

>  <reference.doi>  (398) 
None

>  <reference.chembl_id>  (398) 
CHEMBL1135602

>  <reference.journal>  (398) 
J. Med. Chem.

>  <reference.year>  (398) 
2002

$$$$

     RDKit          3D

 27 29  0  0  0  0  0  0  0  0999 V2000
    0.1684   -3.3031   -1.3493 C   0  0  0  0  0  0  0  0  0  0  0  0
    0.9199   -2.1600   -1.0230 O   0  0  0  0  0  0  0  0  0  0  0  0
    0.2317   -0.9468   -0.9133 C   0  0  0  0  0  0  0  0  0  0  0  0
   -1.1424   -0.8657   -1.1172 C   0  0  0  0  0  0  0  0  0  0  0  0
   -1.8043    0.3387   -1.0049 C   0  0  0  0  0  0  0  0  0  0  0  0
   -3.2756    0.3937   -1.2286 C   0  0  0  0  0  0  0  0  0  0  0  0
   -4.0132    0.1910    0.0202 C   0  0  0  0  0  0  0  0  0  0  0  0
   -4.5979    1.2808    0.6556 C   0  0  0  0  0  0  0  0  0  0  0  0
   -5.2748    1.0953    1.8016 N   0  0  0  0  0  0  0  0  0  0  0  0
   -5.4177   -0.1111    2.3746 C   0  0  0  0  0  0  0  0  0  0  0  0
   -6.1502   -0.2213    3.5892 N   0  0  0  0  0  0  0  0  0  0  0  0
   -4.8517   -1.1864    1.7655 N   0  0  0  0  0  0  0  0  0  0  0  0
   -4.1582   -1.0426    0.6044 C   0  0  0  0  0  0  0  0  0  0  0  0
   -3.5668   -2.1876   -0.0258 N   0  0  0  0  0  0  0  0  0  0  0  0
   -1.0557    1.4517   -0.6847 C   0  0  0  0  0  0  0  0  0  0  0  0
    0.3146    1.3669   -0.4821 C   0  0  0  0  0  0  0  0  0  0  0  0
    1.0696    2.4890   -0.1592 O   0  0  0  0  0  0  0  0  0  0  0  0
    0.3961    3.7482   -0.0389 C   0  0  0  0  0  0  0  0  0  0  0  0
    0.9843    0.1662   -0.5925 C   0  0  0  0  0  0  0  0  0  0  0  0
    2.3293    0.0678   -0.3965 O   0  0  0  0  0  0  0  0  0  0  0  0
    3.3170    0.2146   -1.3791 C   0  0  0  0  0  0  0  0  0  0  0  0
    4.6858    0.0444   -0.8224 C   0  0  0  0  0  0  0  0  0  0  0  0
    5.8221    0.1870   -1.5756 C   0  0  0  0  0  0  0  0  0  0  0  0
    7.0477    0.0093   -0.9714 C   0  0  0  0  0  0  0  0  0  0  0  0
    7.1893   -0.3071    0.3627 C   0  0  0  0  0  0  0  0  0  0  0  0
    6.0308   -0.4417    1.0845 C   0  0  0  0  0  0  0  0  0  0  0  0
    4.8018   -0.2712    0.5116 C   0  0  0  0  0  0  0  0  0  0  0  0
  1  2  1  0
  2  3  1  0
  3  4  2  0
  4  5  1  0
  5  6  1  0
  6  7  1  0
  7  8  2  0
  8  9  1  0
  9 10  2  0
 10 11  1  0
 10 12  1  0
 12 13  2  0
 13 14  1  0
  5 15  2  0
 15 16  1  0
 16 17  1  0
 17 18  1  0
 16 19  2  0
 19 20  1  0
 20 21  1  0
 21 22  1  0
 22 23  2  0
 23 24  1  0
 24 25  2  0
 25 26  1  0
 26 27  2  0
 19  3  1  0
 27 22  1  0
 13  7  1  0
M  END
>  <zinc_id>  (399) 
ZINC000013472733

>  <ortholog_name>  (399) 
DRTS_PLAFK

>  <gene_name>  (399) 
DRTS_PLAFK

>  <affinity>  (399) 
7.21

>  <chembldocid>  (399) 
16871

>  <title>  (399) 
None

>  <reference.pubmed_id>  (399) 
11881993

>  <reference.doi>  (399) 
None

>  <reference.chembl_id>  (399) 
CHEMBL1135602

>  <reference.journal>  (399) 
J. Med. Chem.

>  <reference.year>  (399) 
2002

$$$$

     RDKit          3D

 27 29  0  0  0  0  0  0  0  0999 V2000
    0.1684   -3.3031   -1.3493 C   0  0  0  0  0  0  0  0  0  0  0  0
    0.9199   -2.1600   -1.0230 O   0  0  0  0  0  0  0  0  0  0  0  0
    0.2317   -0.9468   -0.9133 C   0  0  0  0  0  0  0  0  0  0  0  0
   -1.1424   -0.8657   -1.1172 C   0  0  0  0  0  0  0  0  0  0  0  0
   -1.8043    0.3387   -1.0049 C   0  0  0  0  0  0  0  0  0  0  0  0
   -3.2756    0.3937   -1.2286 C   0  0  0  0  0  0  0  0  0  0  0  0
   -4.0132    0.1910    0.0202 C   0  0  0  0  0  0  0  0  0  0  0  0
   -4.5979    1.2808    0.6556 C   0  0  0  0  0  0  0  0  0  0  0  0
   -5.2748    1.0953    1.8016 N   0  0  0  0  0  0  0  0  0  0  0  0
   -5.4177   -0.1111    2.3746 C   0  0  0  0  0  0  0  0  0  0  0  0
   -6.1502   -0.2213    3.5892 N   0  0  0  0  0  0  0  0  0  0  0  0
   -4.8517   -1.1864    1.7655 N   0  0  0  0  0  0  0  0  0  0  0  0
   -4.1582   -1.0426    0.6044 C   0  0  0  0  0  0  0  0  0  0  0  0
   -3.5668   -2.1876   -0.0258 N   0  0  0  0  0  0  0  0  0  0  0  0
   -1.0557    1.4517   -0.6847 C   0  0  0  0  0  0  0  0  0  0  0  0
    0.3146    1.3669   -0.4821 C   0  0  0  0  0  0  0  0  0  0  0  0
    1.0696    2.4890   -0.1592 O   0  0  0  0  0  0  0  0  0  0  0  0
    0.3961    3.7482   -0.0389 C   0  0  0  0  0  0  0  0  0  0  0  0
    0.9843    0.1662   -0.5925 C   0  0  0  0  0  0  0  0  0  0  0  0
    2.3293    0.0678   -0.3965 O   0  0  0  0  0  0  0  0  0  0  0  0
    3.3170    0.2146   -1.3791 C   0  0  0  0  0  0  0  0  0  0  0  0
    4.6858    0.0444   -0.8224 C   0  0  0  0  0  0  0  0  0  0  0  0
    5.8221    0.1870   -1.5756 C   0  0  0  0  0  0  0  0  0  0  0  0
    7.0477    0.0093   -0.9714 C   0  0  0  0  0  0  0  0  0  0  0  0
    7.1893   -0.3071    0.3627 C   0  0  0  0  0  0  0  0  0  0  0  0
    6.0308   -0.4417    1.0845 C   0  0  0  0  0  0  0  0  0  0  0  0
    4.8018   -0.2712    0.5116 C   0  0  0  0  0  0  0  0  0  0  0  0
  1  2  1  0
  2  3  1  0
  3  4  2  0
  4  5  1  0
  5  6  1  0
  6  7  1  0
  7  8  2  0
  8  9  1  0
  9 10  2  0
 10 11  1  0
 10 12  1  0
 12 13  2  0
 13 14  1  0
  5 15  2  0
 15 16  1  0
 16 17  1  0
 17 18  1  0
 16 19  2  0
 19 20  1  0
 20 21  1  0
 21 22  1  0
 22 23  2  0
 23 24  1  0
 24 25  2  0
 25 26  1  0
 26 27  2  0
 19  3  1  0
 27 22  1  0
 13  7  1  0
M  END
>  <zinc_id>  (400) 
ZINC000013472733

>  <ortholog_name>  (400) 
DRTS_PLAFK

>  <gene_name>  (400) 
DRTS_PLAFK

>  <affinity>  (400) 
7.14

>  <chembldocid>  (400) 
16871

>  <title>  (400) 
None

>  <reference.pubmed_id>  (400) 
11881993

>  <reference.doi>  (400) 
None

>  <reference.chembl_id>  (400) 
CHEMBL1135602

>  <reference.journal>  (400) 
J. Med. Chem.

>  <reference.year>  (400) 
2002

$$$$

     RDKit          3D

 26 28  0  0  0  0  0  0  0  0999 V2000
    1.1355   -0.2282    3.9214 C   0  0  0  0  0  0  0  0  0  0  0  0
   -0.2746    0.2916    3.9694 C   0  0  0  0  0  0  0  0  0  0  0  0
   -1.0178   -0.1996    2.8965 O   0  0  0  0  0  0  0  0  0  0  0  0
   -0.6862    0.0341    1.5909 C   0  0  0  0  0  0  0  0  0  0  0  0
    0.4368    0.7919    1.2356 C   0  0  0  0  0  0  0  0  0  0  0  0
    0.7652    1.0240   -0.0770 C   0  0  0  0  0  0  0  0  0  0  0  0
    1.9348    1.8138   -0.5275 C   0  0  0  0  0  0  0  0  0  0  0  0
    3.0975    0.8996   -0.6885 C   0  0  0  0  0  0  0  0  0  0  0  0
    3.5478    0.4714   -1.9213 C   0  0  0  0  0  0  0  0  0  0  0  0
    4.6059   -0.3560   -1.9712 N   0  0  0  0  0  0  0  0  0  0  0  0
    5.2721   -0.8075   -0.8997 C   0  0  0  0  0  0  0  0  0  0  0  0
    6.3923   -1.6865   -0.9940 N   0  0  0  0  0  0  0  0  0  0  0  0
    4.8385   -0.3932    0.3178 N   0  0  0  0  0  0  0  0  0  0  0  0
    3.7797    0.4379    0.4174 C   0  0  0  0  0  0  0  0  0  0  0  0
    3.3071    0.8877    1.7012 N   0  0  0  0  0  0  0  0  0  0  0  0
   -0.0485    0.4853   -1.0451 C   0  0  0  0  0  0  0  0  0  0  0  0
   -1.1558   -0.2621   -0.6943 C   0  0  0  0  0  0  0  0  0  0  0  0
   -1.5025   -0.5064    0.6176 C   0  0  0  0  0  0  0  0  0  0  0  0
   -2.6229   -1.2620    0.9318 O   0  0  0  0  0  0  0  0  0  0  0  0
   -3.4679   -1.8177   -0.0489 C   0  0  0  0  0  0  0  0  0  0  0  0
   -4.0982   -0.8052   -0.9299 C   0  0  0  0  0  0  0  0  0  0  0  0
   -3.9170    0.5389   -0.7720 C   0  0  0  0  0  0  0  0  0  0  0  0
   -4.5479    1.4022   -1.6391 C   0  0  0  0  0  0  0  0  0  0  0  0
   -5.3492    0.9482   -2.6514 C   0  0  0  0  0  0  0  0  0  0  0  0
   -5.5265   -0.4263   -2.8027 C   0  0  0  0  0  0  0  0  0  0  0  0
   -4.8982   -1.2760   -1.9399 C   0  0  0  0  0  0  0  0  0  0  0  0
  1  2  1  0
  2  3  1  0
  3  4  1  0
  4  5  2  0
  5  6  1  0
  6  7  1  0
  7  8  1  0
  8  9  2  0
  9 10  1  0
 10 11  2  0
 11 12  1  0
 11 13  1  0
 13 14  2  0
 14 15  1  0
  6 16  2  0
 16 17  1  0
 17 18  2  0
 18 19  1  0
 19 20  1  0
 20 21  1  0
 21 22  2  0
 22 23  1  0
 23 24  2  0
 24 25  1  0
 25 26  2  0
 18  4  1  0
 26 21  1  0
 14  8  1  0
M  END
>  <zinc_id>  (401) 
ZINC000013472734

>  <ortholog_name>  (401) 
DRTS_PLAFK

>  <gene_name>  (401) 
DRTS_PLAFK

>  <affinity>  (401) 
9.10

>  <chembldocid>  (401) 
17636

>  <title>  (401) 
None

>  <reference.pubmed_id>  (401) 
14711307

>  <reference.doi>  (401) 
None

>  <reference.chembl_id>  (401) 
CHEMBL1148379

>  <reference.journal>  (401) 
J. Med. Chem.

>  <reference.year>  (401) 
2004

$$$$

     RDKit          3D

 26 28  0  0  0  0  0  0  0  0999 V2000
    1.1355   -0.2282    3.9214 C   0  0  0  0  0  0  0  0  0  0  0  0
   -0.2746    0.2916    3.9694 C   0  0  0  0  0  0  0  0  0  0  0  0
   -1.0178   -0.1996    2.8965 O   0  0  0  0  0  0  0  0  0  0  0  0
   -0.6862    0.0341    1.5909 C   0  0  0  0  0  0  0  0  0  0  0  0
    0.4368    0.7919    1.2356 C   0  0  0  0  0  0  0  0  0  0  0  0
    0.7652    1.0240   -0.0770 C   0  0  0  0  0  0  0  0  0  0  0  0
    1.9348    1.8138   -0.5275 C   0  0  0  0  0  0  0  0  0  0  0  0
    3.0975    0.8996   -0.6885 C   0  0  0  0  0  0  0  0  0  0  0  0
    3.5478    0.4714   -1.9213 C   0  0  0  0  0  0  0  0  0  0  0  0
    4.6059   -0.3560   -1.9712 N   0  0  0  0  0  0  0  0  0  0  0  0
    5.2721   -0.8075   -0.8997 C   0  0  0  0  0  0  0  0  0  0  0  0
    6.3923   -1.6865   -0.9940 N   0  0  0  0  0  0  0  0  0  0  0  0
    4.8385   -0.3932    0.3178 N   0  0  0  0  0  0  0  0  0  0  0  0
    3.7797    0.4379    0.4174 C   0  0  0  0  0  0  0  0  0  0  0  0
    3.3071    0.8877    1.7012 N   0  0  0  0  0  0  0  0  0  0  0  0
   -0.0485    0.4853   -1.0451 C   0  0  0  0  0  0  0  0  0  0  0  0
   -1.1558   -0.2621   -0.6943 C   0  0  0  0  0  0  0  0  0  0  0  0
   -1.5025   -0.5064    0.6176 C   0  0  0  0  0  0  0  0  0  0  0  0
   -2.6229   -1.2620    0.9318 O   0  0  0  0  0  0  0  0  0  0  0  0
   -3.4679   -1.8177   -0.0489 C   0  0  0  0  0  0  0  0  0  0  0  0
   -4.0982   -0.8052   -0.9299 C   0  0  0  0  0  0  0  0  0  0  0  0
   -3.9170    0.5389   -0.7720 C   0  0  0  0  0  0  0  0  0  0  0  0
   -4.5479    1.4022   -1.6391 C   0  0  0  0  0  0  0  0  0  0  0  0
   -5.3492    0.9482   -2.6514 C   0  0  0  0  0  0  0  0  0  0  0  0
   -5.5265   -0.4263   -2.8027 C   0  0  0  0  0  0  0  0  0  0  0  0
   -4.8982   -1.2760   -1.9399 C   0  0  0  0  0  0  0  0  0  0  0  0
  1  2  1  0
  2  3  1  0
  3  4  1  0
  4  5  2  0
  5  6  1  0
  6  7  1  0
  7  8  1  0
  8  9  2  0
  9 10  1  0
 10 11  2  0
 11 12  1  0
 11 13  1  0
 13 14  2  0
 14 15  1  0
  6 16  2  0
 16 17  1  0
 17 18  2  0
 18 19  1  0
 19 20  1  0
 20 21  1  0
 21 22  2  0
 22 23  1  0
 23 24  2  0
 24 25  1  0
 25 26  2  0
 18  4  1  0
 26 21  1  0
 14  8  1  0
M  END
>  <zinc_id>  (402) 
ZINC000013472734

>  <ortholog_name>  (402) 
DRTS_PLAFK

>  <gene_name>  (402) 
DRTS_PLAFK

>  <affinity>  (402) 
9.05

>  <chembldocid>  (402) 
16871

>  <title>  (402) 
None

>  <reference.pubmed_id>  (402) 
11881993

>  <reference.doi>  (402) 
None

>  <reference.chembl_id>  (402) 
CHEMBL1135602

>  <reference.journal>  (402) 
J. Med. Chem.

>  <reference.year>  (402) 
2002

$$$$

     RDKit          3D

 26 28  0  0  0  0  0  0  0  0999 V2000
    1.1355   -0.2282    3.9214 C   0  0  0  0  0  0  0  0  0  0  0  0
   -0.2746    0.2916    3.9694 C   0  0  0  0  0  0  0  0  0  0  0  0
   -1.0178   -0.1996    2.8965 O   0  0  0  0  0  0  0  0  0  0  0  0
   -0.6862    0.0341    1.5909 C   0  0  0  0  0  0  0  0  0  0  0  0
    0.4368    0.7919    1.2356 C   0  0  0  0  0  0  0  0  0  0  0  0
    0.7652    1.0240   -0.0770 C   0  0  0  0  0  0  0  0  0  0  0  0
    1.9348    1.8138   -0.5275 C   0  0  0  0  0  0  0  0  0  0  0  0
    3.0975    0.8996   -0.6885 C   0  0  0  0  0  0  0  0  0  0  0  0
    3.5478    0.4714   -1.9213 C   0  0  0  0  0  0  0  0  0  0  0  0
    4.6059   -0.3560   -1.9712 N   0  0  0  0  0  0  0  0  0  0  0  0
    5.2721   -0.8075   -0.8997 C   0  0  0  0  0  0  0  0  0  0  0  0
    6.3923   -1.6865   -0.9940 N   0  0  0  0  0  0  0  0  0  0  0  0
    4.8385   -0.3932    0.3178 N   0  0  0  0  0  0  0  0  0  0  0  0
    3.7797    0.4379    0.4174 C   0  0  0  0  0  0  0  0  0  0  0  0
    3.3071    0.8877    1.7012 N   0  0  0  0  0  0  0  0  0  0  0  0
   -0.0485    0.4853   -1.0451 C   0  0  0  0  0  0  0  0  0  0  0  0
   -1.1558   -0.2621   -0.6943 C   0  0  0  0  0  0  0  0  0  0  0  0
   -1.5025   -0.5064    0.6176 C   0  0  0  0  0  0  0  0  0  0  0  0
   -2.6229   -1.2620    0.9318 O   0  0  0  0  0  0  0  0  0  0  0  0
   -3.4679   -1.8177   -0.0489 C   0  0  0  0  0  0  0  0  0  0  0  0
   -4.0982   -0.8052   -0.9299 C   0  0  0  0  0  0  0  0  0  0  0  0
   -3.9170    0.5389   -0.7720 C   0  0  0  0  0  0  0  0  0  0  0  0
   -4.5479    1.4022   -1.6391 C   0  0  0  0  0  0  0  0  0  0  0  0
   -5.3492    0.9482   -2.6514 C   0  0  0  0  0  0  0  0  0  0  0  0
   -5.5265   -0.4263   -2.8027 C   0  0  0  0  0  0  0  0  0  0  0  0
   -4.8982   -1.2760   -1.9399 C   0  0  0  0  0  0  0  0  0  0  0  0
  1  2  1  0
  2  3  1  0
  3  4  1  0
  4  5  2  0
  5  6  1  0
  6  7  1  0
  7  8  1  0
  8  9  2  0
  9 10  1  0
 10 11  2  0
 11 12  1  0
 11 13  1  0
 13 14  2  0
 14 15  1  0
  6 16  2  0
 16 17  1  0
 17 18  2  0
 18 19  1  0
 19 20  1  0
 20 21  1  0
 21 22  2  0
 22 23  1  0
 23 24  2  0
 24 25  1  0
 25 26  2  0
 18  4  1  0
 26 21  1  0
 14  8  1  0
M  END
>  <zinc_id>  (403) 
ZINC000013472734

>  <ortholog_name>  (403) 
DRTS_PLAFK

>  <gene_name>  (403) 
DRTS_PLAFK

>  <affinity>  (403) 
6.92

>  <chembldocid>  (403) 
17636

>  <title>  (403) 
None

>  <reference.pubmed_id>  (403) 
14711307

>  <reference.doi>  (403) 
None

>  <reference.chembl_id>  (403) 
CHEMBL1148379

>  <reference.journal>  (403) 
J. Med. Chem.

>  <reference.year>  (403) 
2004

$$$$

     RDKit          3D

 26 28  0  0  0  0  0  0  0  0999 V2000
    1.1355   -0.2282    3.9214 C   0  0  0  0  0  0  0  0  0  0  0  0
   -0.2746    0.2916    3.9694 C   0  0  0  0  0  0  0  0  0  0  0  0
   -1.0178   -0.1996    2.8965 O   0  0  0  0  0  0  0  0  0  0  0  0
   -0.6862    0.0341    1.5909 C   0  0  0  0  0  0  0  0  0  0  0  0
    0.4368    0.7919    1.2356 C   0  0  0  0  0  0  0  0  0  0  0  0
    0.7652    1.0240   -0.0770 C   0  0  0  0  0  0  0  0  0  0  0  0
    1.9348    1.8138   -0.5275 C   0  0  0  0  0  0  0  0  0  0  0  0
    3.0975    0.8996   -0.6885 C   0  0  0  0  0  0  0  0  0  0  0  0
    3.5478    0.4714   -1.9213 C   0  0  0  0  0  0  0  0  0  0  0  0
    4.6059   -0.3560   -1.9712 N   0  0  0  0  0  0  0  0  0  0  0  0
    5.2721   -0.8075   -0.8997 C   0  0  0  0  0  0  0  0  0  0  0  0
    6.3923   -1.6865   -0.9940 N   0  0  0  0  0  0  0  0  0  0  0  0
    4.8385   -0.3932    0.3178 N   0  0  0  0  0  0  0  0  0  0  0  0
    3.7797    0.4379    0.4174 C   0  0  0  0  0  0  0  0  0  0  0  0
    3.3071    0.8877    1.7012 N   0  0  0  0  0  0  0  0  0  0  0  0
   -0.0485    0.4853   -1.0451 C   0  0  0  0  0  0  0  0  0  0  0  0
   -1.1558   -0.2621   -0.6943 C   0  0  0  0  0  0  0  0  0  0  0  0
   -1.5025   -0.5064    0.6176 C   0  0  0  0  0  0  0  0  0  0  0  0
   -2.6229   -1.2620    0.9318 O   0  0  0  0  0  0  0  0  0  0  0  0
   -3.4679   -1.8177   -0.0489 C   0  0  0  0  0  0  0  0  0  0  0  0
   -4.0982   -0.8052   -0.9299 C   0  0  0  0  0  0  0  0  0  0  0  0
   -3.9170    0.5389   -0.7720 C   0  0  0  0  0  0  0  0  0  0  0  0
   -4.5479    1.4022   -1.6391 C   0  0  0  0  0  0  0  0  0  0  0  0
   -5.3492    0.9482   -2.6514 C   0  0  0  0  0  0  0  0  0  0  0  0
   -5.5265   -0.4263   -2.8027 C   0  0  0  0  0  0  0  0  0  0  0  0
   -4.8982   -1.2760   -1.9399 C   0  0  0  0  0  0  0  0  0  0  0  0
  1  2  1  0
  2  3  1  0
  3  4  1  0
  4  5  2  0
  5  6  1  0
  6  7  1  0
  7  8  1  0
  8  9  2  0
  9 10  1  0
 10 11  2  0
 11 12  1  0
 11 13  1  0
 13 14  2  0
 14 15  1  0
  6 16  2  0
 16 17  1  0
 17 18  2  0
 18 19  1  0
 19 20  1  0
 20 21  1  0
 21 22  2  0
 22 23  1  0
 23 24  2  0
 24 25  1  0
 25 26  2  0
 18  4  1  0
 26 21  1  0
 14  8  1  0
M  END
>  <zinc_id>  (404) 
ZINC000013472734

>  <ortholog_name>  (404) 
DRTS_PLAFK

>  <gene_name>  (404) 
DRTS_PLAFK

>  <affinity>  (404) 
6.37

>  <chembldocid>  (404) 
17636

>  <title>  (404) 
None

>  <reference.pubmed_id>  (404) 
14711307

>  <reference.doi>  (404) 
None

>  <reference.chembl_id>  (404) 
CHEMBL1148379

>  <reference.journal>  (404) 
J. Med. Chem.

>  <reference.year>  (404) 
2004

$$$$

     RDKit          3D

 26 28  0  0  0  0  0  0  0  0999 V2000
    1.1355   -0.2282    3.9214 C   0  0  0  0  0  0  0  0  0  0  0  0
   -0.2746    0.2916    3.9694 C   0  0  0  0  0  0  0  0  0  0  0  0
   -1.0178   -0.1996    2.8965 O   0  0  0  0  0  0  0  0  0  0  0  0
   -0.6862    0.0341    1.5909 C   0  0  0  0  0  0  0  0  0  0  0  0
    0.4368    0.7919    1.2356 C   0  0  0  0  0  0  0  0  0  0  0  0
    0.7652    1.0240   -0.0770 C   0  0  0  0  0  0  0  0  0  0  0  0
    1.9348    1.8138   -0.5275 C   0  0  0  0  0  0  0  0  0  0  0  0
    3.0975    0.8996   -0.6885 C   0  0  0  0  0  0  0  0  0  0  0  0
    3.5478    0.4714   -1.9213 C   0  0  0  0  0  0  0  0  0  0  0  0
    4.6059   -0.3560   -1.9712 N   0  0  0  0  0  0  0  0  0  0  0  0
    5.2721   -0.8075   -0.8997 C   0  0  0  0  0  0  0  0  0  0  0  0
    6.3923   -1.6865   -0.9940 N   0  0  0  0  0  0  0  0  0  0  0  0
    4.8385   -0.3932    0.3178 N   0  0  0  0  0  0  0  0  0  0  0  0
    3.7797    0.4379    0.4174 C   0  0  0  0  0  0  0  0  0  0  0  0
    3.3071    0.8877    1.7012 N   0  0  0  0  0  0  0  0  0  0  0  0
   -0.0485    0.4853   -1.0451 C   0  0  0  0  0  0  0  0  0  0  0  0
   -1.1558   -0.2621   -0.6943 C   0  0  0  0  0  0  0  0  0  0  0  0
   -1.5025   -0.5064    0.6176 C   0  0  0  0  0  0  0  0  0  0  0  0
   -2.6229   -1.2620    0.9318 O   0  0  0  0  0  0  0  0  0  0  0  0
   -3.4679   -1.8177   -0.0489 C   0  0  0  0  0  0  0  0  0  0  0  0
   -4.0982   -0.8052   -0.9299 C   0  0  0  0  0  0  0  0  0  0  0  0
   -3.9170    0.5389   -0.7720 C   0  0  0  0  0  0  0  0  0  0  0  0
   -4.5479    1.4022   -1.6391 C   0  0  0  0  0  0  0  0  0  0  0  0
   -5.3492    0.9482   -2.6514 C   0  0  0  0  0  0  0  0  0  0  0  0
   -5.5265   -0.4263   -2.8027 C   0  0  0  0  0  0  0  0  0  0  0  0
   -4.8982   -1.2760   -1.9399 C   0  0  0  0  0  0  0  0  0  0  0  0
  1  2  1  0
  2  3  1  0
  3  4  1  0
  4  5  2  0
  5  6  1  0
  6  7  1  0
  7  8  1  0
  8  9  2  0
  9 10  1  0
 10 11  2  0
 11 12  1  0
 11 13  1  0
 13 14  2  0
 14 15  1  0
  6 16  2  0
 16 17  1  0
 17 18  2  0
 18 19  1  0
 19 20  1  0
 20 21  1  0
 21 22  2  0
 22 23  1  0
 23 24  2  0
 24 25  1  0
 25 26  2  0
 18  4  1  0
 26 21  1  0
 14  8  1  0
M  END
>  <zinc_id>  (405) 
ZINC000013472734

>  <ortholog_name>  (405) 
DRTS_PLAFK

>  <gene_name>  (405) 
DRTS_PLAFK

>  <affinity>  (405) 
6.33

>  <chembldocid>  (405) 
17636

>  <title>  (405) 
None

>  <reference.pubmed_id>  (405) 
14711307

>  <reference.doi>  (405) 
None

>  <reference.chembl_id>  (405) 
CHEMBL1148379

>  <reference.journal>  (405) 
J. Med. Chem.

>  <reference.year>  (405) 
2004

$$$$

     RDKit          3D

 26 28  0  0  0  0  0  0  0  0999 V2000
    1.1355   -0.2282    3.9214 C   0  0  0  0  0  0  0  0  0  0  0  0
   -0.2746    0.2916    3.9694 C   0  0  0  0  0  0  0  0  0  0  0  0
   -1.0178   -0.1996    2.8965 O   0  0  0  0  0  0  0  0  0  0  0  0
   -0.6862    0.0341    1.5909 C   0  0  0  0  0  0  0  0  0  0  0  0
    0.4368    0.7919    1.2356 C   0  0  0  0  0  0  0  0  0  0  0  0
    0.7652    1.0240   -0.0770 C   0  0  0  0  0  0  0  0  0  0  0  0
    1.9348    1.8138   -0.5275 C   0  0  0  0  0  0  0  0  0  0  0  0
    3.0975    0.8996   -0.6885 C   0  0  0  0  0  0  0  0  0  0  0  0
    3.5478    0.4714   -1.9213 C   0  0  0  0  0  0  0  0  0  0  0  0
    4.6059   -0.3560   -1.9712 N   0  0  0  0  0  0  0  0  0  0  0  0
    5.2721   -0.8075   -0.8997 C   0  0  0  0  0  0  0  0  0  0  0  0
    6.3923   -1.6865   -0.9940 N   0  0  0  0  0  0  0  0  0  0  0  0
    4.8385   -0.3932    0.3178 N   0  0  0  0  0  0  0  0  0  0  0  0
    3.7797    0.4379    0.4174 C   0  0  0  0  0  0  0  0  0  0  0  0
    3.3071    0.8877    1.7012 N   0  0  0  0  0  0  0  0  0  0  0  0
   -0.0485    0.4853   -1.0451 C   0  0  0  0  0  0  0  0  0  0  0  0
   -1.1558   -0.2621   -0.6943 C   0  0  0  0  0  0  0  0  0  0  0  0
   -1.5025   -0.5064    0.6176 C   0  0  0  0  0  0  0  0  0  0  0  0
   -2.6229   -1.2620    0.9318 O   0  0  0  0  0  0  0  0  0  0  0  0
   -3.4679   -1.8177   -0.0489 C   0  0  0  0  0  0  0  0  0  0  0  0
   -4.0982   -0.8052   -0.9299 C   0  0  0  0  0  0  0  0  0  0  0  0
   -3.9170    0.5389   -0.7720 C   0  0  0  0  0  0  0  0  0  0  0  0
   -4.5479    1.4022   -1.6391 C   0  0  0  0  0  0  0  0  0  0  0  0
   -5.3492    0.9482   -2.6514 C   0  0  0  0  0  0  0  0  0  0  0  0
   -5.5265   -0.4263   -2.8027 C   0  0  0  0  0  0  0  0  0  0  0  0
   -4.8982   -1.2760   -1.9399 C   0  0  0  0  0  0  0  0  0  0  0  0
  1  2  1  0
  2  3  1  0
  3  4  1  0
  4  5  2  0
  5  6  1  0
  6  7  1  0
  7  8  1  0
  8  9  2  0
  9 10  1  0
 10 11  2  0
 11 12  1  0
 11 13  1  0
 13 14  2  0
 14 15  1  0
  6 16  2  0
 16 17  1  0
 17 18  2  0
 18 19  1  0
 19 20  1  0
 20 21  1  0
 21 22  2  0
 22 23  1  0
 23 24  2  0
 24 25  1  0
 25 26  2  0
 18  4  1  0
 26 21  1  0
 14  8  1  0
M  END
>  <zinc_id>  (406) 
ZINC000013472734

>  <ortholog_name>  (406) 
DRTS_PLAFK

>  <gene_name>  (406) 
DRTS_PLAFK

>  <affinity>  (406) 
6.24

>  <chembldocid>  (406) 
17636

>  <title>  (406) 
None

>  <reference.pubmed_id>  (406) 
14711307

>  <reference.doi>  (406) 
None

>  <reference.chembl_id>  (406) 
CHEMBL1148379

>  <reference.journal>  (406) 
J. Med. Chem.

>  <reference.year>  (406) 
2004

$$$$

     RDKit          3D

 26 28  0  0  0  0  0  0  0  0999 V2000
    1.1355   -0.2282    3.9214 C   0  0  0  0  0  0  0  0  0  0  0  0
   -0.2746    0.2916    3.9694 C   0  0  0  0  0  0  0  0  0  0  0  0
   -1.0178   -0.1996    2.8965 O   0  0  0  0  0  0  0  0  0  0  0  0
   -0.6862    0.0341    1.5909 C   0  0  0  0  0  0  0  0  0  0  0  0
    0.4368    0.7919    1.2356 C   0  0  0  0  0  0  0  0  0  0  0  0
    0.7652    1.0240   -0.0770 C   0  0  0  0  0  0  0  0  0  0  0  0
    1.9348    1.8138   -0.5275 C   0  0  0  0  0  0  0  0  0  0  0  0
    3.0975    0.8996   -0.6885 C   0  0  0  0  0  0  0  0  0  0  0  0
    3.5478    0.4714   -1.9213 C   0  0  0  0  0  0  0  0  0  0  0  0
    4.6059   -0.3560   -1.9712 N   0  0  0  0  0  0  0  0  0  0  0  0
    5.2721   -0.8075   -0.8997 C   0  0  0  0  0  0  0  0  0  0  0  0
    6.3923   -1.6865   -0.9940 N   0  0  0  0  0  0  0  0  0  0  0  0
    4.8385   -0.3932    0.3178 N   0  0  0  0  0  0  0  0  0  0  0  0
    3.7797    0.4379    0.4174 C   0  0  0  0  0  0  0  0  0  0  0  0
    3.3071    0.8877    1.7012 N   0  0  0  0  0  0  0  0  0  0  0  0
   -0.0485    0.4853   -1.0451 C   0  0  0  0  0  0  0  0  0  0  0  0
   -1.1558   -0.2621   -0.6943 C   0  0  0  0  0  0  0  0  0  0  0  0
   -1.5025   -0.5064    0.6176 C   0  0  0  0  0  0  0  0  0  0  0  0
   -2.6229   -1.2620    0.9318 O   0  0  0  0  0  0  0  0  0  0  0  0
   -3.4679   -1.8177   -0.0489 C   0  0  0  0  0  0  0  0  0  0  0  0
   -4.0982   -0.8052   -0.9299 C   0  0  0  0  0  0  0  0  0  0  0  0
   -3.9170    0.5389   -0.7720 C   0  0  0  0  0  0  0  0  0  0  0  0
   -4.5479    1.4022   -1.6391 C   0  0  0  0  0  0  0  0  0  0  0  0
   -5.3492    0.9482   -2.6514 C   0  0  0  0  0  0  0  0  0  0  0  0
   -5.5265   -0.4263   -2.8027 C   0  0  0  0  0  0  0  0  0  0  0  0
   -4.8982   -1.2760   -1.9399 C   0  0  0  0  0  0  0  0  0  0  0  0
  1  2  1  0
  2  3  1  0
  3  4  1  0
  4  5  2  0
  5  6  1  0
  6  7  1  0
  7  8  1  0
  8  9  2  0
  9 10  1  0
 10 11  2  0
 11 12  1  0
 11 13  1  0
 13 14  2  0
 14 15  1  0
  6 16  2  0
 16 17  1  0
 17 18  2  0
 18 19  1  0
 19 20  1  0
 20 21  1  0
 21 22  2  0
 22 23  1  0
 23 24  2  0
 24 25  1  0
 25 26  2  0
 18  4  1  0
 26 21  1  0
 14  8  1  0
M  END
>  <zinc_id>  (407) 
ZINC000013472734

>  <ortholog_name>  (407) 
DRTS_PLAFK

>  <gene_name>  (407) 
DRTS_PLAFK

>  <affinity>  (407) 
8.15

>  <chembldocid>  (407) 
16871

>  <title>  (407) 
None

>  <reference.pubmed_id>  (407) 
11881993

>  <reference.doi>  (407) 
None

>  <reference.chembl_id>  (407) 
CHEMBL1135602

>  <reference.journal>  (407) 
J. Med. Chem.

>  <reference.year>  (407) 
2002

$$$$

     RDKit          3D

 26 28  0  0  0  0  0  0  0  0999 V2000
    1.1355   -0.2282    3.9214 C   0  0  0  0  0  0  0  0  0  0  0  0
   -0.2746    0.2916    3.9694 C   0  0  0  0  0  0  0  0  0  0  0  0
   -1.0178   -0.1996    2.8965 O   0  0  0  0  0  0  0  0  0  0  0  0
   -0.6862    0.0341    1.5909 C   0  0  0  0  0  0  0  0  0  0  0  0
    0.4368    0.7919    1.2356 C   0  0  0  0  0  0  0  0  0  0  0  0
    0.7652    1.0240   -0.0770 C   0  0  0  0  0  0  0  0  0  0  0  0
    1.9348    1.8138   -0.5275 C   0  0  0  0  0  0  0  0  0  0  0  0
    3.0975    0.8996   -0.6885 C   0  0  0  0  0  0  0  0  0  0  0  0
    3.5478    0.4714   -1.9213 C   0  0  0  0  0  0  0  0  0  0  0  0
    4.6059   -0.3560   -1.9712 N   0  0  0  0  0  0  0  0  0  0  0  0
    5.2721   -0.8075   -0.8997 C   0  0  0  0  0  0  0  0  0  0  0  0
    6.3923   -1.6865   -0.9940 N   0  0  0  0  0  0  0  0  0  0  0  0
    4.8385   -0.3932    0.3178 N   0  0  0  0  0  0  0  0  0  0  0  0
    3.7797    0.4379    0.4174 C   0  0  0  0  0  0  0  0  0  0  0  0
    3.3071    0.8877    1.7012 N   0  0  0  0  0  0  0  0  0  0  0  0
   -0.0485    0.4853   -1.0451 C   0  0  0  0  0  0  0  0  0  0  0  0
   -1.1558   -0.2621   -0.6943 C   0  0  0  0  0  0  0  0  0  0  0  0
   -1.5025   -0.5064    0.6176 C   0  0  0  0  0  0  0  0  0  0  0  0
   -2.6229   -1.2620    0.9318 O   0  0  0  0  0  0  0  0  0  0  0  0
   -3.4679   -1.8177   -0.0489 C   0  0  0  0  0  0  0  0  0  0  0  0
   -4.0982   -0.8052   -0.9299 C   0  0  0  0  0  0  0  0  0  0  0  0
   -3.9170    0.5389   -0.7720 C   0  0  0  0  0  0  0  0  0  0  0  0
   -4.5479    1.4022   -1.6391 C   0  0  0  0  0  0  0  0  0  0  0  0
   -5.3492    0.9482   -2.6514 C   0  0  0  0  0  0  0  0  0  0  0  0
   -5.5265   -0.4263   -2.8027 C   0  0  0  0  0  0  0  0  0  0  0  0
   -4.8982   -1.2760   -1.9399 C   0  0  0  0  0  0  0  0  0  0  0  0
  1  2  1  0
  2  3  1  0
  3  4  1  0
  4  5  2  0
  5  6  1  0
  6  7  1  0
  7  8  1  0
  8  9  2  0
  9 10  1  0
 10 11  2  0
 11 12  1  0
 11 13  1  0
 13 14  2  0
 14 15  1  0
  6 16  2  0
 16 17  1  0
 17 18  2  0
 18 19  1  0
 19 20  1  0
 20 21  1  0
 21 22  2  0
 22 23  1  0
 23 24  2  0
 24 25  1  0
 25 26  2  0
 18  4  1  0
 26 21  1  0
 14  8  1  0
M  END
>  <zinc_id>  (408) 
ZINC000013472734

>  <ortholog_name>  (408) 
DRTS_PLAFK

>  <gene_name>  (408) 
DRTS_PLAFK

>  <affinity>  (408) 
7.15

>  <chembldocid>  (408) 
17636

>  <title>  (408) 
None

>  <reference.pubmed_id>  (408) 
14711307

>  <reference.doi>  (408) 
None

>  <reference.chembl_id>  (408) 
CHEMBL1148379

>  <reference.journal>  (408) 
J. Med. Chem.

>  <reference.year>  (408) 
2004

$$$$

     RDKit          3D

 26 28  0  0  0  0  0  0  0  0999 V2000
    1.1355   -0.2282    3.9214 C   0  0  0  0  0  0  0  0  0  0  0  0
   -0.2746    0.2916    3.9694 C   0  0  0  0  0  0  0  0  0  0  0  0
   -1.0178   -0.1996    2.8965 O   0  0  0  0  0  0  0  0  0  0  0  0
   -0.6862    0.0341    1.5909 C   0  0  0  0  0  0  0  0  0  0  0  0
    0.4368    0.7919    1.2356 C   0  0  0  0  0  0  0  0  0  0  0  0
    0.7652    1.0240   -0.0770 C   0  0  0  0  0  0  0  0  0  0  0  0
    1.9348    1.8138   -0.5275 C   0  0  0  0  0  0  0  0  0  0  0  0
    3.0975    0.8996   -0.6885 C   0  0  0  0  0  0  0  0  0  0  0  0
    3.5478    0.4714   -1.9213 C   0  0  0  0  0  0  0  0  0  0  0  0
    4.6059   -0.3560   -1.9712 N   0  0  0  0  0  0  0  0  0  0  0  0
    5.2721   -0.8075   -0.8997 C   0  0  0  0  0  0  0  0  0  0  0  0
    6.3923   -1.6865   -0.9940 N   0  0  0  0  0  0  0  0  0  0  0  0
    4.8385   -0.3932    0.3178 N   0  0  0  0  0  0  0  0  0  0  0  0
    3.7797    0.4379    0.4174 C   0  0  0  0  0  0  0  0  0  0  0  0
    3.3071    0.8877    1.7012 N   0  0  0  0  0  0  0  0  0  0  0  0
   -0.0485    0.4853   -1.0451 C   0  0  0  0  0  0  0  0  0  0  0  0
   -1.1558   -0.2621   -0.6943 C   0  0  0  0  0  0  0  0  0  0  0  0
   -1.5025   -0.5064    0.6176 C   0  0  0  0  0  0  0  0  0  0  0  0
   -2.6229   -1.2620    0.9318 O   0  0  0  0  0  0  0  0  0  0  0  0
   -3.4679   -1.8177   -0.0489 C   0  0  0  0  0  0  0  0  0  0  0  0
   -4.0982   -0.8052   -0.9299 C   0  0  0  0  0  0  0  0  0  0  0  0
   -3.9170    0.5389   -0.7720 C   0  0  0  0  0  0  0  0  0  0  0  0
   -4.5479    1.4022   -1.6391 C   0  0  0  0  0  0  0  0  0  0  0  0
   -5.3492    0.9482   -2.6514 C   0  0  0  0  0  0  0  0  0  0  0  0
   -5.5265   -0.4263   -2.8027 C   0  0  0  0  0  0  0  0  0  0  0  0
   -4.8982   -1.2760   -1.9399 C   0  0  0  0  0  0  0  0  0  0  0  0
  1  2  1  0
  2  3  1  0
  3  4  1  0
  4  5  2  0
  5  6  1  0
  6  7  1  0
  7  8  1  0
  8  9  2  0
  9 10  1  0
 10 11  2  0
 11 12  1  0
 11 13  1  0
 13 14  2  0
 14 15  1  0
  6 16  2  0
 16 17  1  0
 17 18  2  0
 18 19  1  0
 19 20  1  0
 20 21  1  0
 21 22  2  0
 22 23  1  0
 23 24  2  0
 24 25  1  0
 25 26  2  0
 18  4  1  0
 26 21  1  0
 14  8  1  0
M  END
>  <zinc_id>  (409) 
ZINC000013472734

>  <ortholog_name>  (409) 
DRTS_PLAFK

>  <gene_name>  (409) 
DRTS_PLAFK

>  <affinity>  (409) 
7.10

>  <chembldocid>  (409) 
17636

>  <title>  (409) 
None

>  <reference.pubmed_id>  (409) 
14711307

>  <reference.doi>  (409) 
None

>  <reference.chembl_id>  (409) 
CHEMBL1148379

>  <reference.journal>  (409) 
J. Med. Chem.

>  <reference.year>  (409) 
2004

$$$$

     RDKit          3D

 26 28  0  0  0  0  0  0  0  0999 V2000
    1.1355   -0.2282    3.9214 C   0  0  0  0  0  0  0  0  0  0  0  0
   -0.2746    0.2916    3.9694 C   0  0  0  0  0  0  0  0  0  0  0  0
   -1.0178   -0.1996    2.8965 O   0  0  0  0  0  0  0  0  0  0  0  0
   -0.6862    0.0341    1.5909 C   0  0  0  0  0  0  0  0  0  0  0  0
    0.4368    0.7919    1.2356 C   0  0  0  0  0  0  0  0  0  0  0  0
    0.7652    1.0240   -0.0770 C   0  0  0  0  0  0  0  0  0  0  0  0
    1.9348    1.8138   -0.5275 C   0  0  0  0  0  0  0  0  0  0  0  0
    3.0975    0.8996   -0.6885 C   0  0  0  0  0  0  0  0  0  0  0  0
    3.5478    0.4714   -1.9213 C   0  0  0  0  0  0  0  0  0  0  0  0
    4.6059   -0.3560   -1.9712 N   0  0  0  0  0  0  0  0  0  0  0  0
    5.2721   -0.8075   -0.8997 C   0  0  0  0  0  0  0  0  0  0  0  0
    6.3923   -1.6865   -0.9940 N   0  0  0  0  0  0  0  0  0  0  0  0
    4.8385   -0.3932    0.3178 N   0  0  0  0  0  0  0  0  0  0  0  0
    3.7797    0.4379    0.4174 C   0  0  0  0  0  0  0  0  0  0  0  0
    3.3071    0.8877    1.7012 N   0  0  0  0  0  0  0  0  0  0  0  0
   -0.0485    0.4853   -1.0451 C   0  0  0  0  0  0  0  0  0  0  0  0
   -1.1558   -0.2621   -0.6943 C   0  0  0  0  0  0  0  0  0  0  0  0
   -1.5025   -0.5064    0.6176 C   0  0  0  0  0  0  0  0  0  0  0  0
   -2.6229   -1.2620    0.9318 O   0  0  0  0  0  0  0  0  0  0  0  0
   -3.4679   -1.8177   -0.0489 C   0  0  0  0  0  0  0  0  0  0  0  0
   -4.0982   -0.8052   -0.9299 C   0  0  0  0  0  0  0  0  0  0  0  0
   -3.9170    0.5389   -0.7720 C   0  0  0  0  0  0  0  0  0  0  0  0
   -4.5479    1.4022   -1.6391 C   0  0  0  0  0  0  0  0  0  0  0  0
   -5.3492    0.9482   -2.6514 C   0  0  0  0  0  0  0  0  0  0  0  0
   -5.5265   -0.4263   -2.8027 C   0  0  0  0  0  0  0  0  0  0  0  0
   -4.8982   -1.2760   -1.9399 C   0  0  0  0  0  0  0  0  0  0  0  0
  1  2  1  0
  2  3  1  0
  3  4  1  0
  4  5  2  0
  5  6  1  0
  6  7  1  0
  7  8  1  0
  8  9  2  0
  9 10  1  0
 10 11  2  0
 11 12  1  0
 11 13  1  0
 13 14  2  0
 14 15  1  0
  6 16  2  0
 16 17  1  0
 17 18  2  0
 18 19  1  0
 19 20  1  0
 20 21  1  0
 21 22  2  0
 22 23  1  0
 23 24  2  0
 24 25  1  0
 25 26  2  0
 18  4  1  0
 26 21  1  0
 14  8  1  0
M  END
>  <zinc_id>  (410) 
ZINC000013472734

>  <ortholog_name>  (410) 
DRTS_PLAFK

>  <gene_name>  (410) 
DRTS_PLAFK

>  <affinity>  (410) 
8.01

>  <chembldocid>  (410) 
16871

>  <title>  (410) 
None

>  <reference.pubmed_id>  (410) 
11881993

>  <reference.doi>  (410) 
None

>  <reference.chembl_id>  (410) 
CHEMBL1135602

>  <reference.journal>  (410) 
J. Med. Chem.

>  <reference.year>  (410) 
2002

$$$$

     RDKit          3D

 26 28  0  0  0  0  0  0  0  0999 V2000
    1.1355   -0.2282    3.9214 C   0  0  0  0  0  0  0  0  0  0  0  0
   -0.2746    0.2916    3.9694 C   0  0  0  0  0  0  0  0  0  0  0  0
   -1.0178   -0.1996    2.8965 O   0  0  0  0  0  0  0  0  0  0  0  0
   -0.6862    0.0341    1.5909 C   0  0  0  0  0  0  0  0  0  0  0  0
    0.4368    0.7919    1.2356 C   0  0  0  0  0  0  0  0  0  0  0  0
    0.7652    1.0240   -0.0770 C   0  0  0  0  0  0  0  0  0  0  0  0
    1.9348    1.8138   -0.5275 C   0  0  0  0  0  0  0  0  0  0  0  0
    3.0975    0.8996   -0.6885 C   0  0  0  0  0  0  0  0  0  0  0  0
    3.5478    0.4714   -1.9213 C   0  0  0  0  0  0  0  0  0  0  0  0
    4.6059   -0.3560   -1.9712 N   0  0  0  0  0  0  0  0  0  0  0  0
    5.2721   -0.8075   -0.8997 C   0  0  0  0  0  0  0  0  0  0  0  0
    6.3923   -1.6865   -0.9940 N   0  0  0  0  0  0  0  0  0  0  0  0
    4.8385   -0.3932    0.3178 N   0  0  0  0  0  0  0  0  0  0  0  0
    3.7797    0.4379    0.4174 C   0  0  0  0  0  0  0  0  0  0  0  0
    3.3071    0.8877    1.7012 N   0  0  0  0  0  0  0  0  0  0  0  0
   -0.0485    0.4853   -1.0451 C   0  0  0  0  0  0  0  0  0  0  0  0
   -1.1558   -0.2621   -0.6943 C   0  0  0  0  0  0  0  0  0  0  0  0
   -1.5025   -0.5064    0.6176 C   0  0  0  0  0  0  0  0  0  0  0  0
   -2.6229   -1.2620    0.9318 O   0  0  0  0  0  0  0  0  0  0  0  0
   -3.4679   -1.8177   -0.0489 C   0  0  0  0  0  0  0  0  0  0  0  0
   -4.0982   -0.8052   -0.9299 C   0  0  0  0  0  0  0  0  0  0  0  0
   -3.9170    0.5389   -0.7720 C   0  0  0  0  0  0  0  0  0  0  0  0
   -4.5479    1.4022   -1.6391 C   0  0  0  0  0  0  0  0  0  0  0  0
   -5.3492    0.9482   -2.6514 C   0  0  0  0  0  0  0  0  0  0  0  0
   -5.5265   -0.4263   -2.8027 C   0  0  0  0  0  0  0  0  0  0  0  0
   -4.8982   -1.2760   -1.9399 C   0  0  0  0  0  0  0  0  0  0  0  0
  1  2  1  0
  2  3  1  0
  3  4  1  0
  4  5  2  0
  5  6  1  0
  6  7  1  0
  7  8  1  0
  8  9  2  0
  9 10  1  0
 10 11  2  0
 11 12  1  0
 11 13  1  0
 13 14  2  0
 14 15  1  0
  6 16  2  0
 16 17  1  0
 17 18  2  0
 18 19  1  0
 19 20  1  0
 20 21  1  0
 21 22  2  0
 22 23  1  0
 23 24  2  0
 24 25  1  0
 25 26  2  0
 18  4  1  0
 26 21  1  0
 14  8  1  0
M  END
>  <zinc_id>  (411) 
ZINC000013472734

>  <ortholog_name>  (411) 
DRTS_PLAFK

>  <gene_name>  (411) 
DRTS_PLAFK

>  <affinity>  (411) 
8.01

>  <chembldocid>  (411) 
17636

>  <title>  (411) 
None

>  <reference.pubmed_id>  (411) 
14711307

>  <reference.doi>  (411) 
None

>  <reference.chembl_id>  (411) 
CHEMBL1148379

>  <reference.journal>  (411) 
J. Med. Chem.

>  <reference.year>  (411) 
2004

$$$$

     RDKit          3D

 31 34  0  0  0  0  0  0  0  0999 V2000
    7.0435   -1.2712   -0.5398 N   0  0  0  0  0  0  0  0  0  0  0  0
    5.7891   -0.8345   -0.0279 C   0  0  0  0  0  0  0  0  0  0  0  0
    5.2721   -1.3470    1.0818 N   0  0  0  0  0  0  0  0  0  0  0  0
    4.0798   -0.9258    1.5608 C   0  0  0  0  0  0  0  0  0  0  0  0
    3.3616    0.0607    0.8985 C   0  0  0  0  0  0  0  0  0  0  0  0
    2.0617    0.5009    1.4451 C   0  0  0  0  0  0  0  0  0  0  0  0
    0.9075   -0.0481    0.6872 C   0  0  0  0  0  0  0  0  0  0  0  0
    0.3560   -1.2591    1.0592 C   0  0  0  0  0  0  0  0  0  0  0  0
   -0.7130   -1.7557    0.3478 C   0  0  0  0  0  0  0  0  0  0  0  0
   -1.2805   -1.1157   -0.7293 C   0  0  0  0  0  0  0  0  0  0  0  0
   -2.3444   -1.6088   -1.4380 O   0  0  0  0  0  0  0  0  0  0  0  0
   -3.0047   -2.8088   -1.1846 C   0  0  0  0  0  0  0  0  0  0  0  0
   -3.5978   -2.8298    0.1872 C   0  0  0  0  0  0  0  0  0  0  0  0
   -4.2415   -3.9764    0.6048 C   0  0  0  0  0  0  0  0  0  0  0  0
   -4.8139   -4.0698    1.8557 C   0  0  0  0  0  0  0  0  0  0  0  0
   -4.7099   -2.9530    2.6732 C   0  0  0  0  0  0  0  0  0  0  0  0
   -4.0735   -1.7935    2.2851 C   0  0  0  0  0  0  0  0  0  0  0  0
   -3.5163   -1.7431    1.0286 C   0  0  0  0  0  0  0  0  0  0  0  0
   -0.7231    0.1132   -1.1091 C   0  0  0  0  0  0  0  0  0  0  0  0
   -1.2926    0.7557   -2.1902 O   0  0  0  0  0  0  0  0  0  0  0  0
   -0.8130    1.9859   -2.6441 C   0  0  0  0  0  0  0  0  0  0  0  0
   -0.9220    3.0238   -1.5892 C   0  0  0  0  0  0  0  0  0  0  0  0
    0.1560    3.4213   -0.8289 C   0  0  0  0  0  0  0  0  0  0  0  0
    0.0654    4.3826    0.1498 C   0  0  0  0  0  0  0  0  0  0  0  0
   -1.1634    4.9666    0.3703 C   0  0  0  0  0  0  0  0  0  0  0  0
   -2.2669    4.5959   -0.3701 C   0  0  0  0  0  0  0  0  0  0  0  0
   -2.1462    3.6305   -1.3435 C   0  0  0  0  0  0  0  0  0  0  0  0
    0.3501    0.6073   -0.3914 C   0  0  0  0  0  0  0  0  0  0  0  0
    3.9041    0.5817   -0.2441 C   0  0  0  0  0  0  0  0  0  0  0  0
    3.1819    1.5914   -0.9329 N   0  0  0  0  0  0  0  0  0  0  0  0
    5.0940    0.1226   -0.6720 N   0  0  0  0  0  0  0  0  0  0  0  0
  1  2  1  0
  2  3  2  0
  3  4  1  0
  4  5  2  0
  5  6  1  0
  6  7  1  0
  7  8  2  0
  8  9  1  0
  9 10  2  0
 10 11  1  0
 11 12  1  0
 12 13  1  0
 13 14  2  0
 14 15  1  0
 15 16  2  0
 16 17  1  0
 17 18  2  0
 10 19  1  0
 19 20  1  0
 20 21  1  0
 21 22  1  0
 22 23  2  0
 23 24  1  0
 24 25  2  0
 25 26  1  0
 26 27  2  0
 19 28  2  0
  5 29  1  0
 29 30  1  0
 29 31  2  0
 31  2  1  0
 28  7  1  0
 18 13  1  0
 27 22  1  0
M  END
>  <zinc_id>  (412) 
ZINC000013472735

>  <ortholog_name>  (412) 
DRTS_PLAFK

>  <gene_name>  (412) 
DRTS_PLAFK

>  <affinity>  (412) 
8.77

>  <chembldocid>  (412) 
16871

>  <title>  (412) 
None

>  <reference.pubmed_id>  (412) 
11881993

>  <reference.doi>  (412) 
None

>  <reference.chembl_id>  (412) 
CHEMBL1135602

>  <reference.journal>  (412) 
J. Med. Chem.

>  <reference.year>  (412) 
2002

$$$$

     RDKit          3D

 31 34  0  0  0  0  0  0  0  0999 V2000
    7.0435   -1.2712   -0.5398 N   0  0  0  0  0  0  0  0  0  0  0  0
    5.7891   -0.8345   -0.0279 C   0  0  0  0  0  0  0  0  0  0  0  0
    5.2721   -1.3470    1.0818 N   0  0  0  0  0  0  0  0  0  0  0  0
    4.0798   -0.9258    1.5608 C   0  0  0  0  0  0  0  0  0  0  0  0
    3.3616    0.0607    0.8985 C   0  0  0  0  0  0  0  0  0  0  0  0
    2.0617    0.5009    1.4451 C   0  0  0  0  0  0  0  0  0  0  0  0
    0.9075   -0.0481    0.6872 C   0  0  0  0  0  0  0  0  0  0  0  0
    0.3560   -1.2591    1.0592 C   0  0  0  0  0  0  0  0  0  0  0  0
   -0.7130   -1.7557    0.3478 C   0  0  0  0  0  0  0  0  0  0  0  0
   -1.2805   -1.1157   -0.7293 C   0  0  0  0  0  0  0  0  0  0  0  0
   -2.3444   -1.6088   -1.4380 O   0  0  0  0  0  0  0  0  0  0  0  0
   -3.0047   -2.8088   -1.1846 C   0  0  0  0  0  0  0  0  0  0  0  0
   -3.5978   -2.8298    0.1872 C   0  0  0  0  0  0  0  0  0  0  0  0
   -4.2415   -3.9764    0.6048 C   0  0  0  0  0  0  0  0  0  0  0  0
   -4.8139   -4.0698    1.8557 C   0  0  0  0  0  0  0  0  0  0  0  0
   -4.7099   -2.9530    2.6732 C   0  0  0  0  0  0  0  0  0  0  0  0
   -4.0735   -1.7935    2.2851 C   0  0  0  0  0  0  0  0  0  0  0  0
   -3.5163   -1.7431    1.0286 C   0  0  0  0  0  0  0  0  0  0  0  0
   -0.7231    0.1132   -1.1091 C   0  0  0  0  0  0  0  0  0  0  0  0
   -1.2926    0.7557   -2.1902 O   0  0  0  0  0  0  0  0  0  0  0  0
   -0.8130    1.9859   -2.6441 C   0  0  0  0  0  0  0  0  0  0  0  0
   -0.9220    3.0238   -1.5892 C   0  0  0  0  0  0  0  0  0  0  0  0
    0.1560    3.4213   -0.8289 C   0  0  0  0  0  0  0  0  0  0  0  0
    0.0654    4.3826    0.1498 C   0  0  0  0  0  0  0  0  0  0  0  0
   -1.1634    4.9666    0.3703 C   0  0  0  0  0  0  0  0  0  0  0  0
   -2.2669    4.5959   -0.3701 C   0  0  0  0  0  0  0  0  0  0  0  0
   -2.1462    3.6305   -1.3435 C   0  0  0  0  0  0  0  0  0  0  0  0
    0.3501    0.6073   -0.3914 C   0  0  0  0  0  0  0  0  0  0  0  0
    3.9041    0.5817   -0.2441 C   0  0  0  0  0  0  0  0  0  0  0  0
    3.1819    1.5914   -0.9329 N   0  0  0  0  0  0  0  0  0  0  0  0
    5.0940    0.1226   -0.6720 N   0  0  0  0  0  0  0  0  0  0  0  0
  1  2  1  0
  2  3  2  0
  3  4  1  0
  4  5  2  0
  5  6  1  0
  6  7  1  0
  7  8  2  0
  8  9  1  0
  9 10  2  0
 10 11  1  0
 11 12  1  0
 12 13  1  0
 13 14  2  0
 14 15  1  0
 15 16  2  0
 16 17  1  0
 17 18  2  0
 10 19  1  0
 19 20  1  0
 20 21  1  0
 21 22  1  0
 22 23  2  0
 23 24  1  0
 24 25  2  0
 25 26  1  0
 26 27  2  0
 19 28  2  0
  5 29  1  0
 29 30  1  0
 29 31  2  0
 31  2  1  0
 28  7  1  0
 18 13  1  0
 27 22  1  0
M  END
>  <zinc_id>  (413) 
ZINC000013472735

>  <ortholog_name>  (413) 
DRTS_PLAFK

>  <gene_name>  (413) 
DRTS_PLAFK

>  <affinity>  (413) 
8.77

>  <chembldocid>  (413) 
17636

>  <title>  (413) 
None

>  <reference.pubmed_id>  (413) 
14711307

>  <reference.doi>  (413) 
None

>  <reference.chembl_id>  (413) 
CHEMBL1148379

>  <reference.journal>  (413) 
J. Med. Chem.

>  <reference.year>  (413) 
2004

$$$$

     RDKit          3D

 31 34  0  0  0  0  0  0  0  0999 V2000
    7.0435   -1.2712   -0.5398 N   0  0  0  0  0  0  0  0  0  0  0  0
    5.7891   -0.8345   -0.0279 C   0  0  0  0  0  0  0  0  0  0  0  0
    5.2721   -1.3470    1.0818 N   0  0  0  0  0  0  0  0  0  0  0  0
    4.0798   -0.9258    1.5608 C   0  0  0  0  0  0  0  0  0  0  0  0
    3.3616    0.0607    0.8985 C   0  0  0  0  0  0  0  0  0  0  0  0
    2.0617    0.5009    1.4451 C   0  0  0  0  0  0  0  0  0  0  0  0
    0.9075   -0.0481    0.6872 C   0  0  0  0  0  0  0  0  0  0  0  0
    0.3560   -1.2591    1.0592 C   0  0  0  0  0  0  0  0  0  0  0  0
   -0.7130   -1.7557    0.3478 C   0  0  0  0  0  0  0  0  0  0  0  0
   -1.2805   -1.1157   -0.7293 C   0  0  0  0  0  0  0  0  0  0  0  0
   -2.3444   -1.6088   -1.4380 O   0  0  0  0  0  0  0  0  0  0  0  0
   -3.0047   -2.8088   -1.1846 C   0  0  0  0  0  0  0  0  0  0  0  0
   -3.5978   -2.8298    0.1872 C   0  0  0  0  0  0  0  0  0  0  0  0
   -4.2415   -3.9764    0.6048 C   0  0  0  0  0  0  0  0  0  0  0  0
   -4.8139   -4.0698    1.8557 C   0  0  0  0  0  0  0  0  0  0  0  0
   -4.7099   -2.9530    2.6732 C   0  0  0  0  0  0  0  0  0  0  0  0
   -4.0735   -1.7935    2.2851 C   0  0  0  0  0  0  0  0  0  0  0  0
   -3.5163   -1.7431    1.0286 C   0  0  0  0  0  0  0  0  0  0  0  0
   -0.7231    0.1132   -1.1091 C   0  0  0  0  0  0  0  0  0  0  0  0
   -1.2926    0.7557   -2.1902 O   0  0  0  0  0  0  0  0  0  0  0  0
   -0.8130    1.9859   -2.6441 C   0  0  0  0  0  0  0  0  0  0  0  0
   -0.9220    3.0238   -1.5892 C   0  0  0  0  0  0  0  0  0  0  0  0
    0.1560    3.4213   -0.8289 C   0  0  0  0  0  0  0  0  0  0  0  0
    0.0654    4.3826    0.1498 C   0  0  0  0  0  0  0  0  0  0  0  0
   -1.1634    4.9666    0.3703 C   0  0  0  0  0  0  0  0  0  0  0  0
   -2.2669    4.5959   -0.3701 C   0  0  0  0  0  0  0  0  0  0  0  0
   -2.1462    3.6305   -1.3435 C   0  0  0  0  0  0  0  0  0  0  0  0
    0.3501    0.6073   -0.3914 C   0  0  0  0  0  0  0  0  0  0  0  0
    3.9041    0.5817   -0.2441 C   0  0  0  0  0  0  0  0  0  0  0  0
    3.1819    1.5914   -0.9329 N   0  0  0  0  0  0  0  0  0  0  0  0
    5.0940    0.1226   -0.6720 N   0  0  0  0  0  0  0  0  0  0  0  0
  1  2  1  0
  2  3  2  0
  3  4  1  0
  4  5  2  0
  5  6  1  0
  6  7  1  0
  7  8  2  0
  8  9  1  0
  9 10  2  0
 10 11  1  0
 11 12  1  0
 12 13  1  0
 13 14  2  0
 14 15  1  0
 15 16  2  0
 16 17  1  0
 17 18  2  0
 10 19  1  0
 19 20  1  0
 20 21  1  0
 21 22  1  0
 22 23  2  0
 23 24  1  0
 24 25  2  0
 25 26  1  0
 26 27  2  0
 19 28  2  0
  5 29  1  0
 29 30  1  0
 29 31  2  0
 31  2  1  0
 28  7  1  0
 18 13  1  0
 27 22  1  0
M  END
>  <zinc_id>  (414) 
ZINC000013472735

>  <ortholog_name>  (414) 
DRTS_PLAFK

>  <gene_name>  (414) 
DRTS_PLAFK

>  <affinity>  (414) 
6.96

>  <chembldocid>  (414) 
17636

>  <title>  (414) 
None

>  <reference.pubmed_id>  (414) 
14711307

>  <reference.doi>  (414) 
None

>  <reference.chembl_id>  (414) 
CHEMBL1148379

>  <reference.journal>  (414) 
J. Med. Chem.

>  <reference.year>  (414) 
2004

$$$$

     RDKit          3D

 31 34  0  0  0  0  0  0  0  0999 V2000
    7.0435   -1.2712   -0.5398 N   0  0  0  0  0  0  0  0  0  0  0  0
    5.7891   -0.8345   -0.0279 C   0  0  0  0  0  0  0  0  0  0  0  0
    5.2721   -1.3470    1.0818 N   0  0  0  0  0  0  0  0  0  0  0  0
    4.0798   -0.9258    1.5608 C   0  0  0  0  0  0  0  0  0  0  0  0
    3.3616    0.0607    0.8985 C   0  0  0  0  0  0  0  0  0  0  0  0
    2.0617    0.5009    1.4451 C   0  0  0  0  0  0  0  0  0  0  0  0
    0.9075   -0.0481    0.6872 C   0  0  0  0  0  0  0  0  0  0  0  0
    0.3560   -1.2591    1.0592 C   0  0  0  0  0  0  0  0  0  0  0  0
   -0.7130   -1.7557    0.3478 C   0  0  0  0  0  0  0  0  0  0  0  0
   -1.2805   -1.1157   -0.7293 C   0  0  0  0  0  0  0  0  0  0  0  0
   -2.3444   -1.6088   -1.4380 O   0  0  0  0  0  0  0  0  0  0  0  0
   -3.0047   -2.8088   -1.1846 C   0  0  0  0  0  0  0  0  0  0  0  0
   -3.5978   -2.8298    0.1872 C   0  0  0  0  0  0  0  0  0  0  0  0
   -4.2415   -3.9764    0.6048 C   0  0  0  0  0  0  0  0  0  0  0  0
   -4.8139   -4.0698    1.8557 C   0  0  0  0  0  0  0  0  0  0  0  0
   -4.7099   -2.9530    2.6732 C   0  0  0  0  0  0  0  0  0  0  0  0
   -4.0735   -1.7935    2.2851 C   0  0  0  0  0  0  0  0  0  0  0  0
   -3.5163   -1.7431    1.0286 C   0  0  0  0  0  0  0  0  0  0  0  0
   -0.7231    0.1132   -1.1091 C   0  0  0  0  0  0  0  0  0  0  0  0
   -1.2926    0.7557   -2.1902 O   0  0  0  0  0  0  0  0  0  0  0  0
   -0.8130    1.9859   -2.6441 C   0  0  0  0  0  0  0  0  0  0  0  0
   -0.9220    3.0238   -1.5892 C   0  0  0  0  0  0  0  0  0  0  0  0
    0.1560    3.4213   -0.8289 C   0  0  0  0  0  0  0  0  0  0  0  0
    0.0654    4.3826    0.1498 C   0  0  0  0  0  0  0  0  0  0  0  0
   -1.1634    4.9666    0.3703 C   0  0  0  0  0  0  0  0  0  0  0  0
   -2.2669    4.5959   -0.3701 C   0  0  0  0  0  0  0  0  0  0  0  0
   -2.1462    3.6305   -1.3435 C   0  0  0  0  0  0  0  0  0  0  0  0
    0.3501    0.6073   -0.3914 C   0  0  0  0  0  0  0  0  0  0  0  0
    3.9041    0.5817   -0.2441 C   0  0  0  0  0  0  0  0  0  0  0  0
    3.1819    1.5914   -0.9329 N   0  0  0  0  0  0  0  0  0  0  0  0
    5.0940    0.1226   -0.6720 N   0  0  0  0  0  0  0  0  0  0  0  0
  1  2  1  0
  2  3  2  0
  3  4  1  0
  4  5  2  0
  5  6  1  0
  6  7  1  0
  7  8  2  0
  8  9  1  0
  9 10  2  0
 10 11  1  0
 11 12  1  0
 12 13  1  0
 13 14  2  0
 14 15  1  0
 15 16  2  0
 16 17  1  0
 17 18  2  0
 10 19  1  0
 19 20  1  0
 20 21  1  0
 21 22  1  0
 22 23  2  0
 23 24  1  0
 24 25  2  0
 25 26  1  0
 26 27  2  0
 19 28  2  0
  5 29  1  0
 29 30  1  0
 29 31  2  0
 31  2  1  0
 28  7  1  0
 18 13  1  0
 27 22  1  0
M  END
>  <zinc_id>  (415) 
ZINC000013472735

>  <ortholog_name>  (415) 
DRTS_PLAFK

>  <gene_name>  (415) 
DRTS_PLAFK

>  <affinity>  (415) 
7.84

>  <chembldocid>  (415) 
16871

>  <title>  (415) 
None

>  <reference.pubmed_id>  (415) 
11881993

>  <reference.doi>  (415) 
None

>  <reference.chembl_id>  (415) 
CHEMBL1135602

>  <reference.journal>  (415) 
J. Med. Chem.

>  <reference.year>  (415) 
2002

$$$$

     RDKit          3D

 31 34  0  0  0  0  0  0  0  0999 V2000
    7.0435   -1.2712   -0.5398 N   0  0  0  0  0  0  0  0  0  0  0  0
    5.7891   -0.8345   -0.0279 C   0  0  0  0  0  0  0  0  0  0  0  0
    5.2721   -1.3470    1.0818 N   0  0  0  0  0  0  0  0  0  0  0  0
    4.0798   -0.9258    1.5608 C   0  0  0  0  0  0  0  0  0  0  0  0
    3.3616    0.0607    0.8985 C   0  0  0  0  0  0  0  0  0  0  0  0
    2.0617    0.5009    1.4451 C   0  0  0  0  0  0  0  0  0  0  0  0
    0.9075   -0.0481    0.6872 C   0  0  0  0  0  0  0  0  0  0  0  0
    0.3560   -1.2591    1.0592 C   0  0  0  0  0  0  0  0  0  0  0  0
   -0.7130   -1.7557    0.3478 C   0  0  0  0  0  0  0  0  0  0  0  0
   -1.2805   -1.1157   -0.7293 C   0  0  0  0  0  0  0  0  0  0  0  0
   -2.3444   -1.6088   -1.4380 O   0  0  0  0  0  0  0  0  0  0  0  0
   -3.0047   -2.8088   -1.1846 C   0  0  0  0  0  0  0  0  0  0  0  0
   -3.5978   -2.8298    0.1872 C   0  0  0  0  0  0  0  0  0  0  0  0
   -4.2415   -3.9764    0.6048 C   0  0  0  0  0  0  0  0  0  0  0  0
   -4.8139   -4.0698    1.8557 C   0  0  0  0  0  0  0  0  0  0  0  0
   -4.7099   -2.9530    2.6732 C   0  0  0  0  0  0  0  0  0  0  0  0
   -4.0735   -1.7935    2.2851 C   0  0  0  0  0  0  0  0  0  0  0  0
   -3.5163   -1.7431    1.0286 C   0  0  0  0  0  0  0  0  0  0  0  0
   -0.7231    0.1132   -1.1091 C   0  0  0  0  0  0  0  0  0  0  0  0
   -1.2926    0.7557   -2.1902 O   0  0  0  0  0  0  0  0  0  0  0  0
   -0.8130    1.9859   -2.6441 C   0  0  0  0  0  0  0  0  0  0  0  0
   -0.9220    3.0238   -1.5892 C   0  0  0  0  0  0  0  0  0  0  0  0
    0.1560    3.4213   -0.8289 C   0  0  0  0  0  0  0  0  0  0  0  0
    0.0654    4.3826    0.1498 C   0  0  0  0  0  0  0  0  0  0  0  0
   -1.1634    4.9666    0.3703 C   0  0  0  0  0  0  0  0  0  0  0  0
   -2.2669    4.5959   -0.3701 C   0  0  0  0  0  0  0  0  0  0  0  0
   -2.1462    3.6305   -1.3435 C   0  0  0  0  0  0  0  0  0  0  0  0
    0.3501    0.6073   -0.3914 C   0  0  0  0  0  0  0  0  0  0  0  0
    3.9041    0.5817   -0.2441 C   0  0  0  0  0  0  0  0  0  0  0  0
    3.1819    1.5914   -0.9329 N   0  0  0  0  0  0  0  0  0  0  0  0
    5.0940    0.1226   -0.6720 N   0  0  0  0  0  0  0  0  0  0  0  0
  1  2  1  0
  2  3  2  0
  3  4  1  0
  4  5  2  0
  5  6  1  0
  6  7  1  0
  7  8  2  0
  8  9  1  0
  9 10  2  0
 10 11  1  0
 11 12  1  0
 12 13  1  0
 13 14  2  0
 14 15  1  0
 15 16  2  0
 16 17  1  0
 17 18  2  0
 10 19  1  0
 19 20  1  0
 20 21  1  0
 21 22  1  0
 22 23  2  0
 23 24  1  0
 24 25  2  0
 25 26  1  0
 26 27  2  0
 19 28  2  0
  5 29  1  0
 29 30  1  0
 29 31  2  0
 31  2  1  0
 28  7  1  0
 18 13  1  0
 27 22  1  0
M  END
>  <zinc_id>  (416) 
ZINC000013472735

>  <ortholog_name>  (416) 
DRTS_PLAFK

>  <gene_name>  (416) 
DRTS_PLAFK

>  <affinity>  (416) 
5.61

>  <chembldocid>  (416) 
17636

>  <title>  (416) 
None

>  <reference.pubmed_id>  (416) 
14711307

>  <reference.doi>  (416) 
None

>  <reference.chembl_id>  (416) 
CHEMBL1148379

>  <reference.journal>  (416) 
J. Med. Chem.

>  <reference.year>  (416) 
2004

$$$$

     RDKit          3D

 31 34  0  0  0  0  0  0  0  0999 V2000
    7.0435   -1.2712   -0.5398 N   0  0  0  0  0  0  0  0  0  0  0  0
    5.7891   -0.8345   -0.0279 C   0  0  0  0  0  0  0  0  0  0  0  0
    5.2721   -1.3470    1.0818 N   0  0  0  0  0  0  0  0  0  0  0  0
    4.0798   -0.9258    1.5608 C   0  0  0  0  0  0  0  0  0  0  0  0
    3.3616    0.0607    0.8985 C   0  0  0  0  0  0  0  0  0  0  0  0
    2.0617    0.5009    1.4451 C   0  0  0  0  0  0  0  0  0  0  0  0
    0.9075   -0.0481    0.6872 C   0  0  0  0  0  0  0  0  0  0  0  0
    0.3560   -1.2591    1.0592 C   0  0  0  0  0  0  0  0  0  0  0  0
   -0.7130   -1.7557    0.3478 C   0  0  0  0  0  0  0  0  0  0  0  0
   -1.2805   -1.1157   -0.7293 C   0  0  0  0  0  0  0  0  0  0  0  0
   -2.3444   -1.6088   -1.4380 O   0  0  0  0  0  0  0  0  0  0  0  0
   -3.0047   -2.8088   -1.1846 C   0  0  0  0  0  0  0  0  0  0  0  0
   -3.5978   -2.8298    0.1872 C   0  0  0  0  0  0  0  0  0  0  0  0
   -4.2415   -3.9764    0.6048 C   0  0  0  0  0  0  0  0  0  0  0  0
   -4.8139   -4.0698    1.8557 C   0  0  0  0  0  0  0  0  0  0  0  0
   -4.7099   -2.9530    2.6732 C   0  0  0  0  0  0  0  0  0  0  0  0
   -4.0735   -1.7935    2.2851 C   0  0  0  0  0  0  0  0  0  0  0  0
   -3.5163   -1.7431    1.0286 C   0  0  0  0  0  0  0  0  0  0  0  0
   -0.7231    0.1132   -1.1091 C   0  0  0  0  0  0  0  0  0  0  0  0
   -1.2926    0.7557   -2.1902 O   0  0  0  0  0  0  0  0  0  0  0  0
   -0.8130    1.9859   -2.6441 C   0  0  0  0  0  0  0  0  0  0  0  0
   -0.9220    3.0238   -1.5892 C   0  0  0  0  0  0  0  0  0  0  0  0
    0.1560    3.4213   -0.8289 C   0  0  0  0  0  0  0  0  0  0  0  0
    0.0654    4.3826    0.1498 C   0  0  0  0  0  0  0  0  0  0  0  0
   -1.1634    4.9666    0.3703 C   0  0  0  0  0  0  0  0  0  0  0  0
   -2.2669    4.5959   -0.3701 C   0  0  0  0  0  0  0  0  0  0  0  0
   -2.1462    3.6305   -1.3435 C   0  0  0  0  0  0  0  0  0  0  0  0
    0.3501    0.6073   -0.3914 C   0  0  0  0  0  0  0  0  0  0  0  0
    3.9041    0.5817   -0.2441 C   0  0  0  0  0  0  0  0  0  0  0  0
    3.1819    1.5914   -0.9329 N   0  0  0  0  0  0  0  0  0  0  0  0
    5.0940    0.1226   -0.6720 N   0  0  0  0  0  0  0  0  0  0  0  0
  1  2  1  0
  2  3  2  0
  3  4  1  0
  4  5  2  0
  5  6  1  0
  6  7  1  0
  7  8  2  0
  8  9  1  0
  9 10  2  0
 10 11  1  0
 11 12  1  0
 12 13  1  0
 13 14  2  0
 14 15  1  0
 15 16  2  0
 16 17  1  0
 17 18  2  0
 10 19  1  0
 19 20  1  0
 20 21  1  0
 21 22  1  0
 22 23  2  0
 23 24  1  0
 24 25  2  0
 25 26  1  0
 26 27  2  0
 19 28  2  0
  5 29  1  0
 29 30  1  0
 29 31  2  0
 31  2  1  0
 28  7  1  0
 18 13  1  0
 27 22  1  0
M  END
>  <zinc_id>  (417) 
ZINC000013472735

>  <ortholog_name>  (417) 
DRTS_PLAFK

>  <gene_name>  (417) 
DRTS_PLAFK

>  <affinity>  (417) 
5.51

>  <chembldocid>  (417) 
17636

>  <title>  (417) 
None

>  <reference.pubmed_id>  (417) 
14711307

>  <reference.doi>  (417) 
None

>  <reference.chembl_id>  (417) 
CHEMBL1148379

>  <reference.journal>  (417) 
J. Med. Chem.

>  <reference.year>  (417) 
2004

$$$$

     RDKit          3D

 31 34  0  0  0  0  0  0  0  0999 V2000
    7.0435   -1.2712   -0.5398 N   0  0  0  0  0  0  0  0  0  0  0  0
    5.7891   -0.8345   -0.0279 C   0  0  0  0  0  0  0  0  0  0  0  0
    5.2721   -1.3470    1.0818 N   0  0  0  0  0  0  0  0  0  0  0  0
    4.0798   -0.9258    1.5608 C   0  0  0  0  0  0  0  0  0  0  0  0
    3.3616    0.0607    0.8985 C   0  0  0  0  0  0  0  0  0  0  0  0
    2.0617    0.5009    1.4451 C   0  0  0  0  0  0  0  0  0  0  0  0
    0.9075   -0.0481    0.6872 C   0  0  0  0  0  0  0  0  0  0  0  0
    0.3560   -1.2591    1.0592 C   0  0  0  0  0  0  0  0  0  0  0  0
   -0.7130   -1.7557    0.3478 C   0  0  0  0  0  0  0  0  0  0  0  0
   -1.2805   -1.1157   -0.7293 C   0  0  0  0  0  0  0  0  0  0  0  0
   -2.3444   -1.6088   -1.4380 O   0  0  0  0  0  0  0  0  0  0  0  0
   -3.0047   -2.8088   -1.1846 C   0  0  0  0  0  0  0  0  0  0  0  0
   -3.5978   -2.8298    0.1872 C   0  0  0  0  0  0  0  0  0  0  0  0
   -4.2415   -3.9764    0.6048 C   0  0  0  0  0  0  0  0  0  0  0  0
   -4.8139   -4.0698    1.8557 C   0  0  0  0  0  0  0  0  0  0  0  0
   -4.7099   -2.9530    2.6732 C   0  0  0  0  0  0  0  0  0  0  0  0
   -4.0735   -1.7935    2.2851 C   0  0  0  0  0  0  0  0  0  0  0  0
   -3.5163   -1.7431    1.0286 C   0  0  0  0  0  0  0  0  0  0  0  0
   -0.7231    0.1132   -1.1091 C   0  0  0  0  0  0  0  0  0  0  0  0
   -1.2926    0.7557   -2.1902 O   0  0  0  0  0  0  0  0  0  0  0  0
   -0.8130    1.9859   -2.6441 C   0  0  0  0  0  0  0  0  0  0  0  0
   -0.9220    3.0238   -1.5892 C   0  0  0  0  0  0  0  0  0  0  0  0
    0.1560    3.4213   -0.8289 C   0  0  0  0  0  0  0  0  0  0  0  0
    0.0654    4.3826    0.1498 C   0  0  0  0  0  0  0  0  0  0  0  0
   -1.1634    4.9666    0.3703 C   0  0  0  0  0  0  0  0  0  0  0  0
   -2.2669    4.5959   -0.3701 C   0  0  0  0  0  0  0  0  0  0  0  0
   -2.1462    3.6305   -1.3435 C   0  0  0  0  0  0  0  0  0  0  0  0
    0.3501    0.6073   -0.3914 C   0  0  0  0  0  0  0  0  0  0  0  0
    3.9041    0.5817   -0.2441 C   0  0  0  0  0  0  0  0  0  0  0  0
    3.1819    1.5914   -0.9329 N   0  0  0  0  0  0  0  0  0  0  0  0
    5.0940    0.1226   -0.6720 N   0  0  0  0  0  0  0  0  0  0  0  0
  1  2  1  0
  2  3  2  0
  3  4  1  0
  4  5  2  0
  5  6  1  0
  6  7  1  0
  7  8  2  0
  8  9  1  0
  9 10  2  0
 10 11  1  0
 11 12  1  0
 12 13  1  0
 13 14  2  0
 14 15  1  0
 15 16  2  0
 16 17  1  0
 17 18  2  0
 10 19  1  0
 19 20  1  0
 20 21  1  0
 21 22  1  0
 22 23  2  0
 23 24  1  0
 24 25  2  0
 25 26  1  0
 26 27  2  0
 19 28  2  0
  5 29  1  0
 29 30  1  0
 29 31  2  0
 31  2  1  0
 28  7  1  0
 18 13  1  0
 27 22  1  0
M  END
>  <zinc_id>  (418) 
ZINC000013472735

>  <ortholog_name>  (418) 
DRTS_PLAFK

>  <gene_name>  (418) 
DRTS_PLAFK

>  <affinity>  (418) 
7.40

>  <chembldocid>  (418) 
17636

>  <title>  (418) 
None

>  <reference.pubmed_id>  (418) 
14711307

>  <reference.doi>  (418) 
None

>  <reference.chembl_id>  (418) 
CHEMBL1148379

>  <reference.journal>  (418) 
J. Med. Chem.

>  <reference.year>  (418) 
2004

$$$$

     RDKit          3D

 31 34  0  0  0  0  0  0  0  0999 V2000
    7.0435   -1.2712   -0.5398 N   0  0  0  0  0  0  0  0  0  0  0  0
    5.7891   -0.8345   -0.0279 C   0  0  0  0  0  0  0  0  0  0  0  0
    5.2721   -1.3470    1.0818 N   0  0  0  0  0  0  0  0  0  0  0  0
    4.0798   -0.9258    1.5608 C   0  0  0  0  0  0  0  0  0  0  0  0
    3.3616    0.0607    0.8985 C   0  0  0  0  0  0  0  0  0  0  0  0
    2.0617    0.5009    1.4451 C   0  0  0  0  0  0  0  0  0  0  0  0
    0.9075   -0.0481    0.6872 C   0  0  0  0  0  0  0  0  0  0  0  0
    0.3560   -1.2591    1.0592 C   0  0  0  0  0  0  0  0  0  0  0  0
   -0.7130   -1.7557    0.3478 C   0  0  0  0  0  0  0  0  0  0  0  0
   -1.2805   -1.1157   -0.7293 C   0  0  0  0  0  0  0  0  0  0  0  0
   -2.3444   -1.6088   -1.4380 O   0  0  0  0  0  0  0  0  0  0  0  0
   -3.0047   -2.8088   -1.1846 C   0  0  0  0  0  0  0  0  0  0  0  0
   -3.5978   -2.8298    0.1872 C   0  0  0  0  0  0  0  0  0  0  0  0
   -4.2415   -3.9764    0.6048 C   0  0  0  0  0  0  0  0  0  0  0  0
   -4.8139   -4.0698    1.8557 C   0  0  0  0  0  0  0  0  0  0  0  0
   -4.7099   -2.9530    2.6732 C   0  0  0  0  0  0  0  0  0  0  0  0
   -4.0735   -1.7935    2.2851 C   0  0  0  0  0  0  0  0  0  0  0  0
   -3.5163   -1.7431    1.0286 C   0  0  0  0  0  0  0  0  0  0  0  0
   -0.7231    0.1132   -1.1091 C   0  0  0  0  0  0  0  0  0  0  0  0
   -1.2926    0.7557   -2.1902 O   0  0  0  0  0  0  0  0  0  0  0  0
   -0.8130    1.9859   -2.6441 C   0  0  0  0  0  0  0  0  0  0  0  0
   -0.9220    3.0238   -1.5892 C   0  0  0  0  0  0  0  0  0  0  0  0
    0.1560    3.4213   -0.8289 C   0  0  0  0  0  0  0  0  0  0  0  0
    0.0654    4.3826    0.1498 C   0  0  0  0  0  0  0  0  0  0  0  0
   -1.1634    4.9666    0.3703 C   0  0  0  0  0  0  0  0  0  0  0  0
   -2.2669    4.5959   -0.3701 C   0  0  0  0  0  0  0  0  0  0  0  0
   -2.1462    3.6305   -1.3435 C   0  0  0  0  0  0  0  0  0  0  0  0
    0.3501    0.6073   -0.3914 C   0  0  0  0  0  0  0  0  0  0  0  0
    3.9041    0.5817   -0.2441 C   0  0  0  0  0  0  0  0  0  0  0  0
    3.1819    1.5914   -0.9329 N   0  0  0  0  0  0  0  0  0  0  0  0
    5.0940    0.1226   -0.6720 N   0  0  0  0  0  0  0  0  0  0  0  0
  1  2  1  0
  2  3  2  0
  3  4  1  0
  4  5  2  0
  5  6  1  0
  6  7  1  0
  7  8  2  0
  8  9  1  0
  9 10  2  0
 10 11  1  0
 11 12  1  0
 12 13  1  0
 13 14  2  0
 14 15  1  0
 15 16  2  0
 16 17  1  0
 17 18  2  0
 10 19  1  0
 19 20  1  0
 20 21  1  0
 21 22  1  0
 22 23  2  0
 23 24  1  0
 24 25  2  0
 25 26  1  0
 26 27  2  0
 19 28  2  0
  5 29  1  0
 29 30  1  0
 29 31  2  0
 31  2  1  0
 28  7  1  0
 18 13  1  0
 27 22  1  0
M  END
>  <zinc_id>  (419) 
ZINC000013472735

>  <ortholog_name>  (419) 
DRTS_PLAFK

>  <gene_name>  (419) 
DRTS_PLAFK

>  <affinity>  (419) 
6.33

>  <chembldocid>  (419) 
17636

>  <title>  (419) 
None

>  <reference.pubmed_id>  (419) 
14711307

>  <reference.doi>  (419) 
None

>  <reference.chembl_id>  (419) 
CHEMBL1148379

>  <reference.journal>  (419) 
J. Med. Chem.

>  <reference.year>  (419) 
2004

$$$$

     RDKit          3D

 31 34  0  0  0  0  0  0  0  0999 V2000
    7.0435   -1.2712   -0.5398 N   0  0  0  0  0  0  0  0  0  0  0  0
    5.7891   -0.8345   -0.0279 C   0  0  0  0  0  0  0  0  0  0  0  0
    5.2721   -1.3470    1.0818 N   0  0  0  0  0  0  0  0  0  0  0  0
    4.0798   -0.9258    1.5608 C   0  0  0  0  0  0  0  0  0  0  0  0
    3.3616    0.0607    0.8985 C   0  0  0  0  0  0  0  0  0  0  0  0
    2.0617    0.5009    1.4451 C   0  0  0  0  0  0  0  0  0  0  0  0
    0.9075   -0.0481    0.6872 C   0  0  0  0  0  0  0  0  0  0  0  0
    0.3560   -1.2591    1.0592 C   0  0  0  0  0  0  0  0  0  0  0  0
   -0.7130   -1.7557    0.3478 C   0  0  0  0  0  0  0  0  0  0  0  0
   -1.2805   -1.1157   -0.7293 C   0  0  0  0  0  0  0  0  0  0  0  0
   -2.3444   -1.6088   -1.4380 O   0  0  0  0  0  0  0  0  0  0  0  0
   -3.0047   -2.8088   -1.1846 C   0  0  0  0  0  0  0  0  0  0  0  0
   -3.5978   -2.8298    0.1872 C   0  0  0  0  0  0  0  0  0  0  0  0
   -4.2415   -3.9764    0.6048 C   0  0  0  0  0  0  0  0  0  0  0  0
   -4.8139   -4.0698    1.8557 C   0  0  0  0  0  0  0  0  0  0  0  0
   -4.7099   -2.9530    2.6732 C   0  0  0  0  0  0  0  0  0  0  0  0
   -4.0735   -1.7935    2.2851 C   0  0  0  0  0  0  0  0  0  0  0  0
   -3.5163   -1.7431    1.0286 C   0  0  0  0  0  0  0  0  0  0  0  0
   -0.7231    0.1132   -1.1091 C   0  0  0  0  0  0  0  0  0  0  0  0
   -1.2926    0.7557   -2.1902 O   0  0  0  0  0  0  0  0  0  0  0  0
   -0.8130    1.9859   -2.6441 C   0  0  0  0  0  0  0  0  0  0  0  0
   -0.9220    3.0238   -1.5892 C   0  0  0  0  0  0  0  0  0  0  0  0
    0.1560    3.4213   -0.8289 C   0  0  0  0  0  0  0  0  0  0  0  0
    0.0654    4.3826    0.1498 C   0  0  0  0  0  0  0  0  0  0  0  0
   -1.1634    4.9666    0.3703 C   0  0  0  0  0  0  0  0  0  0  0  0
   -2.2669    4.5959   -0.3701 C   0  0  0  0  0  0  0  0  0  0  0  0
   -2.1462    3.6305   -1.3435 C   0  0  0  0  0  0  0  0  0  0  0  0
    0.3501    0.6073   -0.3914 C   0  0  0  0  0  0  0  0  0  0  0  0
    3.9041    0.5817   -0.2441 C   0  0  0  0  0  0  0  0  0  0  0  0
    3.1819    1.5914   -0.9329 N   0  0  0  0  0  0  0  0  0  0  0  0
    5.0940    0.1226   -0.6720 N   0  0  0  0  0  0  0  0  0  0  0  0
  1  2  1  0
  2  3  2  0
  3  4  1  0
  4  5  2  0
  5  6  1  0
  6  7  1  0
  7  8  2  0
  8  9  1  0
  9 10  2  0
 10 11  1  0
 11 12  1  0
 12 13  1  0
 13 14  2  0
 14 15  1  0
 15 16  2  0
 16 17  1  0
 17 18  2  0
 10 19  1  0
 19 20  1  0
 20 21  1  0
 21 22  1  0
 22 23  2  0
 23 24  1  0
 24 25  2  0
 25 26  1  0
 26 27  2  0
 19 28  2  0
  5 29  1  0
 29 30  1  0
 29 31  2  0
 31  2  1  0
 28  7  1  0
 18 13  1  0
 27 22  1  0
M  END
>  <zinc_id>  (420) 
ZINC000013472735

>  <ortholog_name>  (420) 
DRTS_PLAFK

>  <gene_name>  (420) 
DRTS_PLAFK

>  <affinity>  (420) 
6.31

>  <chembldocid>  (420) 
17636

>  <title>  (420) 
None

>  <reference.pubmed_id>  (420) 
14711307

>  <reference.doi>  (420) 
None

>  <reference.chembl_id>  (420) 
CHEMBL1148379

>  <reference.journal>  (420) 
J. Med. Chem.

>  <reference.year>  (420) 
2004

$$$$

     RDKit          3D

 31 34  0  0  0  0  0  0  0  0999 V2000
    7.0435   -1.2712   -0.5398 N   0  0  0  0  0  0  0  0  0  0  0  0
    5.7891   -0.8345   -0.0279 C   0  0  0  0  0  0  0  0  0  0  0  0
    5.2721   -1.3470    1.0818 N   0  0  0  0  0  0  0  0  0  0  0  0
    4.0798   -0.9258    1.5608 C   0  0  0  0  0  0  0  0  0  0  0  0
    3.3616    0.0607    0.8985 C   0  0  0  0  0  0  0  0  0  0  0  0
    2.0617    0.5009    1.4451 C   0  0  0  0  0  0  0  0  0  0  0  0
    0.9075   -0.0481    0.6872 C   0  0  0  0  0  0  0  0  0  0  0  0
    0.3560   -1.2591    1.0592 C   0  0  0  0  0  0  0  0  0  0  0  0
   -0.7130   -1.7557    0.3478 C   0  0  0  0  0  0  0  0  0  0  0  0
   -1.2805   -1.1157   -0.7293 C   0  0  0  0  0  0  0  0  0  0  0  0
   -2.3444   -1.6088   -1.4380 O   0  0  0  0  0  0  0  0  0  0  0  0
   -3.0047   -2.8088   -1.1846 C   0  0  0  0  0  0  0  0  0  0  0  0
   -3.5978   -2.8298    0.1872 C   0  0  0  0  0  0  0  0  0  0  0  0
   -4.2415   -3.9764    0.6048 C   0  0  0  0  0  0  0  0  0  0  0  0
   -4.8139   -4.0698    1.8557 C   0  0  0  0  0  0  0  0  0  0  0  0
   -4.7099   -2.9530    2.6732 C   0  0  0  0  0  0  0  0  0  0  0  0
   -4.0735   -1.7935    2.2851 C   0  0  0  0  0  0  0  0  0  0  0  0
   -3.5163   -1.7431    1.0286 C   0  0  0  0  0  0  0  0  0  0  0  0
   -0.7231    0.1132   -1.1091 C   0  0  0  0  0  0  0  0  0  0  0  0
   -1.2926    0.7557   -2.1902 O   0  0  0  0  0  0  0  0  0  0  0  0
   -0.8130    1.9859   -2.6441 C   0  0  0  0  0  0  0  0  0  0  0  0
   -0.9220    3.0238   -1.5892 C   0  0  0  0  0  0  0  0  0  0  0  0
    0.1560    3.4213   -0.8289 C   0  0  0  0  0  0  0  0  0  0  0  0
    0.0654    4.3826    0.1498 C   0  0  0  0  0  0  0  0  0  0  0  0
   -1.1634    4.9666    0.3703 C   0  0  0  0  0  0  0  0  0  0  0  0
   -2.2669    4.5959   -0.3701 C   0  0  0  0  0  0  0  0  0  0  0  0
   -2.1462    3.6305   -1.3435 C   0  0  0  0  0  0  0  0  0  0  0  0
    0.3501    0.6073   -0.3914 C   0  0  0  0  0  0  0  0  0  0  0  0
    3.9041    0.5817   -0.2441 C   0  0  0  0  0  0  0  0  0  0  0  0
    3.1819    1.5914   -0.9329 N   0  0  0  0  0  0  0  0  0  0  0  0
    5.0940    0.1226   -0.6720 N   0  0  0  0  0  0  0  0  0  0  0  0
  1  2  1  0
  2  3  2  0
  3  4  1  0
  4  5  2  0
  5  6  1  0
  6  7  1  0
  7  8  2  0
  8  9  1  0
  9 10  2  0
 10 11  1  0
 11 12  1  0
 12 13  1  0
 13 14  2  0
 14 15  1  0
 15 16  2  0
 16 17  1  0
 17 18  2  0
 10 19  1  0
 19 20  1  0
 20 21  1  0
 21 22  1  0
 22 23  2  0
 23 24  1  0
 24 25  2  0
 25 26  1  0
 26 27  2  0
 19 28  2  0
  5 29  1  0
 29 30  1  0
 29 31  2  0
 31  2  1  0
 28  7  1  0
 18 13  1  0
 27 22  1  0
M  END
>  <zinc_id>  (421) 
ZINC000013472735

>  <ortholog_name>  (421) 
DRTS_PLAFK

>  <gene_name>  (421) 
DRTS_PLAFK

>  <affinity>  (421) 
7.22

>  <chembldocid>  (421) 
17636

>  <title>  (421) 
None

>  <reference.pubmed_id>  (421) 
14711307

>  <reference.doi>  (421) 
None

>  <reference.chembl_id>  (421) 
CHEMBL1148379

>  <reference.journal>  (421) 
J. Med. Chem.

>  <reference.year>  (421) 
2004

$$$$

     RDKit          3D

 31 34  0  0  0  0  0  0  0  0999 V2000
    7.0435   -1.2712   -0.5398 N   0  0  0  0  0  0  0  0  0  0  0  0
    5.7891   -0.8345   -0.0279 C   0  0  0  0  0  0  0  0  0  0  0  0
    5.2721   -1.3470    1.0818 N   0  0  0  0  0  0  0  0  0  0  0  0
    4.0798   -0.9258    1.5608 C   0  0  0  0  0  0  0  0  0  0  0  0
    3.3616    0.0607    0.8985 C   0  0  0  0  0  0  0  0  0  0  0  0
    2.0617    0.5009    1.4451 C   0  0  0  0  0  0  0  0  0  0  0  0
    0.9075   -0.0481    0.6872 C   0  0  0  0  0  0  0  0  0  0  0  0
    0.3560   -1.2591    1.0592 C   0  0  0  0  0  0  0  0  0  0  0  0
   -0.7130   -1.7557    0.3478 C   0  0  0  0  0  0  0  0  0  0  0  0
   -1.2805   -1.1157   -0.7293 C   0  0  0  0  0  0  0  0  0  0  0  0
   -2.3444   -1.6088   -1.4380 O   0  0  0  0  0  0  0  0  0  0  0  0
   -3.0047   -2.8088   -1.1846 C   0  0  0  0  0  0  0  0  0  0  0  0
   -3.5978   -2.8298    0.1872 C   0  0  0  0  0  0  0  0  0  0  0  0
   -4.2415   -3.9764    0.6048 C   0  0  0  0  0  0  0  0  0  0  0  0
   -4.8139   -4.0698    1.8557 C   0  0  0  0  0  0  0  0  0  0  0  0
   -4.7099   -2.9530    2.6732 C   0  0  0  0  0  0  0  0  0  0  0  0
   -4.0735   -1.7935    2.2851 C   0  0  0  0  0  0  0  0  0  0  0  0
   -3.5163   -1.7431    1.0286 C   0  0  0  0  0  0  0  0  0  0  0  0
   -0.7231    0.1132   -1.1091 C   0  0  0  0  0  0  0  0  0  0  0  0
   -1.2926    0.7557   -2.1902 O   0  0  0  0  0  0  0  0  0  0  0  0
   -0.8130    1.9859   -2.6441 C   0  0  0  0  0  0  0  0  0  0  0  0
   -0.9220    3.0238   -1.5892 C   0  0  0  0  0  0  0  0  0  0  0  0
    0.1560    3.4213   -0.8289 C   0  0  0  0  0  0  0  0  0  0  0  0
    0.0654    4.3826    0.1498 C   0  0  0  0  0  0  0  0  0  0  0  0
   -1.1634    4.9666    0.3703 C   0  0  0  0  0  0  0  0  0  0  0  0
   -2.2669    4.5959   -0.3701 C   0  0  0  0  0  0  0  0  0  0  0  0
   -2.1462    3.6305   -1.3435 C   0  0  0  0  0  0  0  0  0  0  0  0
    0.3501    0.6073   -0.3914 C   0  0  0  0  0  0  0  0  0  0  0  0
    3.9041    0.5817   -0.2441 C   0  0  0  0  0  0  0  0  0  0  0  0
    3.1819    1.5914   -0.9329 N   0  0  0  0  0  0  0  0  0  0  0  0
    5.0940    0.1226   -0.6720 N   0  0  0  0  0  0  0  0  0  0  0  0
  1  2  1  0
  2  3  2  0
  3  4  1  0
  4  5  2  0
  5  6  1  0
  6  7  1  0
  7  8  2  0
  8  9  1  0
  9 10  2  0
 10 11  1  0
 11 12  1  0
 12 13  1  0
 13 14  2  0
 14 15  1  0
 15 16  2  0
 16 17  1  0
 17 18  2  0
 10 19  1  0
 19 20  1  0
 20 21  1  0
 21 22  1  0
 22 23  2  0
 23 24  1  0
 24 25  2  0
 25 26  1  0
 26 27  2  0
 19 28  2  0
  5 29  1  0
 29 30  1  0
 29 31  2  0
 31  2  1  0
 28  7  1  0
 18 13  1  0
 27 22  1  0
M  END
>  <zinc_id>  (422) 
ZINC000013472735

>  <ortholog_name>  (422) 
DRTS_PLAFK

>  <gene_name>  (422) 
DRTS_PLAFK

>  <affinity>  (422) 
7.22

>  <chembldocid>  (422) 
16871

>  <title>  (422) 
None

>  <reference.pubmed_id>  (422) 
11881993

>  <reference.doi>  (422) 
None

>  <reference.chembl_id>  (422) 
CHEMBL1135602

>  <reference.journal>  (422) 
J. Med. Chem.

>  <reference.year>  (422) 
2002

$$$$

     RDKit          3D

 31 34  0  0  0  0  0  0  0  0999 V2000
    7.0435   -1.2712   -0.5398 N   0  0  0  0  0  0  0  0  0  0  0  0
    5.7891   -0.8345   -0.0279 C   0  0  0  0  0  0  0  0  0  0  0  0
    5.2721   -1.3470    1.0818 N   0  0  0  0  0  0  0  0  0  0  0  0
    4.0798   -0.9258    1.5608 C   0  0  0  0  0  0  0  0  0  0  0  0
    3.3616    0.0607    0.8985 C   0  0  0  0  0  0  0  0  0  0  0  0
    2.0617    0.5009    1.4451 C   0  0  0  0  0  0  0  0  0  0  0  0
    0.9075   -0.0481    0.6872 C   0  0  0  0  0  0  0  0  0  0  0  0
    0.3560   -1.2591    1.0592 C   0  0  0  0  0  0  0  0  0  0  0  0
   -0.7130   -1.7557    0.3478 C   0  0  0  0  0  0  0  0  0  0  0  0
   -1.2805   -1.1157   -0.7293 C   0  0  0  0  0  0  0  0  0  0  0  0
   -2.3444   -1.6088   -1.4380 O   0  0  0  0  0  0  0  0  0  0  0  0
   -3.0047   -2.8088   -1.1846 C   0  0  0  0  0  0  0  0  0  0  0  0
   -3.5978   -2.8298    0.1872 C   0  0  0  0  0  0  0  0  0  0  0  0
   -4.2415   -3.9764    0.6048 C   0  0  0  0  0  0  0  0  0  0  0  0
   -4.8139   -4.0698    1.8557 C   0  0  0  0  0  0  0  0  0  0  0  0
   -4.7099   -2.9530    2.6732 C   0  0  0  0  0  0  0  0  0  0  0  0
   -4.0735   -1.7935    2.2851 C   0  0  0  0  0  0  0  0  0  0  0  0
   -3.5163   -1.7431    1.0286 C   0  0  0  0  0  0  0  0  0  0  0  0
   -0.7231    0.1132   -1.1091 C   0  0  0  0  0  0  0  0  0  0  0  0
   -1.2926    0.7557   -2.1902 O   0  0  0  0  0  0  0  0  0  0  0  0
   -0.8130    1.9859   -2.6441 C   0  0  0  0  0  0  0  0  0  0  0  0
   -0.9220    3.0238   -1.5892 C   0  0  0  0  0  0  0  0  0  0  0  0
    0.1560    3.4213   -0.8289 C   0  0  0  0  0  0  0  0  0  0  0  0
    0.0654    4.3826    0.1498 C   0  0  0  0  0  0  0  0  0  0  0  0
   -1.1634    4.9666    0.3703 C   0  0  0  0  0  0  0  0  0  0  0  0
   -2.2669    4.5959   -0.3701 C   0  0  0  0  0  0  0  0  0  0  0  0
   -2.1462    3.6305   -1.3435 C   0  0  0  0  0  0  0  0  0  0  0  0
    0.3501    0.6073   -0.3914 C   0  0  0  0  0  0  0  0  0  0  0  0
    3.9041    0.5817   -0.2441 C   0  0  0  0  0  0  0  0  0  0  0  0
    3.1819    1.5914   -0.9329 N   0  0  0  0  0  0  0  0  0  0  0  0
    5.0940    0.1226   -0.6720 N   0  0  0  0  0  0  0  0  0  0  0  0
  1  2  1  0
  2  3  2  0
  3  4  1  0
  4  5  2  0
  5  6  1  0
  6  7  1  0
  7  8  2  0
  8  9  1  0
  9 10  2  0
 10 11  1  0
 11 12  1  0
 12 13  1  0
 13 14  2  0
 14 15  1  0
 15 16  2  0
 16 17  1  0
 17 18  2  0
 10 19  1  0
 19 20  1  0
 20 21  1  0
 21 22  1  0
 22 23  2  0
 23 24  1  0
 24 25  2  0
 25 26  1  0
 26 27  2  0
 19 28  2  0
  5 29  1  0
 29 30  1  0
 29 31  2  0
 31  2  1  0
 28  7  1  0
 18 13  1  0
 27 22  1  0
M  END
>  <zinc_id>  (423) 
ZINC000013472735

>  <ortholog_name>  (423) 
DRTS_PLAFK

>  <gene_name>  (423) 
DRTS_PLAFK

>  <affinity>  (423) 
7.22

>  <chembldocid>  (423) 
17636

>  <title>  (423) 
None

>  <reference.pubmed_id>  (423) 
14711307

>  <reference.doi>  (423) 
None

>  <reference.chembl_id>  (423) 
CHEMBL1148379

>  <reference.journal>  (423) 
J. Med. Chem.

>  <reference.year>  (423) 
2004

$$$$

     RDKit          3D

 31 34  0  0  0  0  0  0  0  0999 V2000
    7.0435   -1.2712   -0.5398 N   0  0  0  0  0  0  0  0  0  0  0  0
    5.7891   -0.8345   -0.0279 C   0  0  0  0  0  0  0  0  0  0  0  0
    5.2721   -1.3470    1.0818 N   0  0  0  0  0  0  0  0  0  0  0  0
    4.0798   -0.9258    1.5608 C   0  0  0  0  0  0  0  0  0  0  0  0
    3.3616    0.0607    0.8985 C   0  0  0  0  0  0  0  0  0  0  0  0
    2.0617    0.5009    1.4451 C   0  0  0  0  0  0  0  0  0  0  0  0
    0.9075   -0.0481    0.6872 C   0  0  0  0  0  0  0  0  0  0  0  0
    0.3560   -1.2591    1.0592 C   0  0  0  0  0  0  0  0  0  0  0  0
   -0.7130   -1.7557    0.3478 C   0  0  0  0  0  0  0  0  0  0  0  0
   -1.2805   -1.1157   -0.7293 C   0  0  0  0  0  0  0  0  0  0  0  0
   -2.3444   -1.6088   -1.4380 O   0  0  0  0  0  0  0  0  0  0  0  0
   -3.0047   -2.8088   -1.1846 C   0  0  0  0  0  0  0  0  0  0  0  0
   -3.5978   -2.8298    0.1872 C   0  0  0  0  0  0  0  0  0  0  0  0
   -4.2415   -3.9764    0.6048 C   0  0  0  0  0  0  0  0  0  0  0  0
   -4.8139   -4.0698    1.8557 C   0  0  0  0  0  0  0  0  0  0  0  0
   -4.7099   -2.9530    2.6732 C   0  0  0  0  0  0  0  0  0  0  0  0
   -4.0735   -1.7935    2.2851 C   0  0  0  0  0  0  0  0  0  0  0  0
   -3.5163   -1.7431    1.0286 C   0  0  0  0  0  0  0  0  0  0  0  0
   -0.7231    0.1132   -1.1091 C   0  0  0  0  0  0  0  0  0  0  0  0
   -1.2926    0.7557   -2.1902 O   0  0  0  0  0  0  0  0  0  0  0  0
   -0.8130    1.9859   -2.6441 C   0  0  0  0  0  0  0  0  0  0  0  0
   -0.9220    3.0238   -1.5892 C   0  0  0  0  0  0  0  0  0  0  0  0
    0.1560    3.4213   -0.8289 C   0  0  0  0  0  0  0  0  0  0  0  0
    0.0654    4.3826    0.1498 C   0  0  0  0  0  0  0  0  0  0  0  0
   -1.1634    4.9666    0.3703 C   0  0  0  0  0  0  0  0  0  0  0  0
   -2.2669    4.5959   -0.3701 C   0  0  0  0  0  0  0  0  0  0  0  0
   -2.1462    3.6305   -1.3435 C   0  0  0  0  0  0  0  0  0  0  0  0
    0.3501    0.6073   -0.3914 C   0  0  0  0  0  0  0  0  0  0  0  0
    3.9041    0.5817   -0.2441 C   0  0  0  0  0  0  0  0  0  0  0  0
    3.1819    1.5914   -0.9329 N   0  0  0  0  0  0  0  0  0  0  0  0
    5.0940    0.1226   -0.6720 N   0  0  0  0  0  0  0  0  0  0  0  0
  1  2  1  0
  2  3  2  0
  3  4  1  0
  4  5  2  0
  5  6  1  0
  6  7  1  0
  7  8  2  0
  8  9  1  0
  9 10  2  0
 10 11  1  0
 11 12  1  0
 12 13  1  0
 13 14  2  0
 14 15  1  0
 15 16  2  0
 16 17  1  0
 17 18  2  0
 10 19  1  0
 19 20  1  0
 20 21  1  0
 21 22  1  0
 22 23  2  0
 23 24  1  0
 24 25  2  0
 25 26  1  0
 26 27  2  0
 19 28  2  0
  5 29  1  0
 29 30  1  0
 29 31  2  0
 31  2  1  0
 28  7  1  0
 18 13  1  0
 27 22  1  0
M  END
>  <zinc_id>  (424) 
ZINC000013472735

>  <ortholog_name>  (424) 
DRTS_PLAFK

>  <gene_name>  (424) 
DRTS_PLAFK

>  <affinity>  (424) 
5.17

>  <chembldocid>  (424) 
17636

>  <title>  (424) 
None

>  <reference.pubmed_id>  (424) 
14711307

>  <reference.doi>  (424) 
None

>  <reference.chembl_id>  (424) 
CHEMBL1148379

>  <reference.journal>  (424) 
J. Med. Chem.

>  <reference.year>  (424) 
2004

$$$$

     RDKit          3D

 31 34  0  0  0  0  0  0  0  0999 V2000
    7.0435   -1.2712   -0.5398 N   0  0  0  0  0  0  0  0  0  0  0  0
    5.7891   -0.8345   -0.0279 C   0  0  0  0  0  0  0  0  0  0  0  0
    5.2721   -1.3470    1.0818 N   0  0  0  0  0  0  0  0  0  0  0  0
    4.0798   -0.9258    1.5608 C   0  0  0  0  0  0  0  0  0  0  0  0
    3.3616    0.0607    0.8985 C   0  0  0  0  0  0  0  0  0  0  0  0
    2.0617    0.5009    1.4451 C   0  0  0  0  0  0  0  0  0  0  0  0
    0.9075   -0.0481    0.6872 C   0  0  0  0  0  0  0  0  0  0  0  0
    0.3560   -1.2591    1.0592 C   0  0  0  0  0  0  0  0  0  0  0  0
   -0.7130   -1.7557    0.3478 C   0  0  0  0  0  0  0  0  0  0  0  0
   -1.2805   -1.1157   -0.7293 C   0  0  0  0  0  0  0  0  0  0  0  0
   -2.3444   -1.6088   -1.4380 O   0  0  0  0  0  0  0  0  0  0  0  0
   -3.0047   -2.8088   -1.1846 C   0  0  0  0  0  0  0  0  0  0  0  0
   -3.5978   -2.8298    0.1872 C   0  0  0  0  0  0  0  0  0  0  0  0
   -4.2415   -3.9764    0.6048 C   0  0  0  0  0  0  0  0  0  0  0  0
   -4.8139   -4.0698    1.8557 C   0  0  0  0  0  0  0  0  0  0  0  0
   -4.7099   -2.9530    2.6732 C   0  0  0  0  0  0  0  0  0  0  0  0
   -4.0735   -1.7935    2.2851 C   0  0  0  0  0  0  0  0  0  0  0  0
   -3.5163   -1.7431    1.0286 C   0  0  0  0  0  0  0  0  0  0  0  0
   -0.7231    0.1132   -1.1091 C   0  0  0  0  0  0  0  0  0  0  0  0
   -1.2926    0.7557   -2.1902 O   0  0  0  0  0  0  0  0  0  0  0  0
   -0.8130    1.9859   -2.6441 C   0  0  0  0  0  0  0  0  0  0  0  0
   -0.9220    3.0238   -1.5892 C   0  0  0  0  0  0  0  0  0  0  0  0
    0.1560    3.4213   -0.8289 C   0  0  0  0  0  0  0  0  0  0  0  0
    0.0654    4.3826    0.1498 C   0  0  0  0  0  0  0  0  0  0  0  0
   -1.1634    4.9666    0.3703 C   0  0  0  0  0  0  0  0  0  0  0  0
   -2.2669    4.5959   -0.3701 C   0  0  0  0  0  0  0  0  0  0  0  0
   -2.1462    3.6305   -1.3435 C   0  0  0  0  0  0  0  0  0  0  0  0
    0.3501    0.6073   -0.3914 C   0  0  0  0  0  0  0  0  0  0  0  0
    3.9041    0.5817   -0.2441 C   0  0  0  0  0  0  0  0  0  0  0  0
    3.1819    1.5914   -0.9329 N   0  0  0  0  0  0  0  0  0  0  0  0
    5.0940    0.1226   -0.6720 N   0  0  0  0  0  0  0  0  0  0  0  0
  1  2  1  0
  2  3  2  0
  3  4  1  0
  4  5  2  0
  5  6  1  0
  6  7  1  0
  7  8  2  0
  8  9  1  0
  9 10  2  0
 10 11  1  0
 11 12  1  0
 12 13  1  0
 13 14  2  0
 14 15  1  0
 15 16  2  0
 16 17  1  0
 17 18  2  0
 10 19  1  0
 19 20  1  0
 20 21  1  0
 21 22  1  0
 22 23  2  0
 23 24  1  0
 24 25  2  0
 25 26  1  0
 26 27  2  0
 19 28  2  0
  5 29  1  0
 29 30  1  0
 29 31  2  0
 31  2  1  0
 28  7  1  0
 18 13  1  0
 27 22  1  0
M  END
>  <zinc_id>  (425) 
ZINC000013472735

>  <ortholog_name>  (425) 
DRTS_PLAFK

>  <gene_name>  (425) 
DRTS_PLAFK

>  <affinity>  (425) 
5.09

>  <chembldocid>  (425) 
17636

>  <title>  (425) 
None

>  <reference.pubmed_id>  (425) 
14711307

>  <reference.doi>  (425) 
None

>  <reference.chembl_id>  (425) 
CHEMBL1148379

>  <reference.journal>  (425) 
J. Med. Chem.

>  <reference.year>  (425) 
2004

$$$$

     RDKit          3D

 32 35  0  0  0  0  0  0  0  0999 V2000
   -4.7471   -1.9248   -0.8000 C   0  0  0  0  0  0  0  0  0  0  0  0
   -4.9531   -0.5126   -0.3654 C   0  0  0  0  0  0  0  0  0  0  0  0
   -5.8406   -0.3169    0.6484 N   0  0  0  0  0  0  0  0  0  0  0  0
   -6.0767    0.9357    1.0932 C   0  0  0  0  0  0  0  0  0  0  0  0
   -6.9996    1.1754    2.1527 N   0  0  0  0  0  0  0  0  0  0  0  0
   -5.4328    1.9711    0.5296 N   0  0  0  0  0  0  0  0  0  0  0  0
   -4.5413    1.8105   -0.4834 C   0  0  0  0  0  0  0  0  0  0  0  0
   -3.8779    2.9056   -1.0597 N   0  0  0  0  0  0  0  0  0  0  0  0
   -4.2864    0.5418   -0.9515 C   0  0  0  0  0  0  0  0  0  0  0  0
   -3.3349    0.3032   -2.0419 C   0  0  0  0  0  0  0  0  0  0  0  0
   -2.0355   -0.2462   -1.5510 C   0  0  0  0  0  0  0  0  0  0  0  0
   -1.8272   -1.6056   -1.4391 C   0  0  0  0  0  0  0  0  0  0  0  0
   -0.6243   -2.1051   -0.9846 C   0  0  0  0  0  0  0  0  0  0  0  0
    0.4240   -1.2855   -0.6212 C   0  0  0  0  0  0  0  0  0  0  0  0
    1.6358   -1.7842   -0.1635 O   0  0  0  0  0  0  0  0  0  0  0  0
    1.8710   -3.1807   -0.0408 C   0  0  0  0  0  0  0  0  0  0  0  0
    3.2334   -3.4565    0.4684 C   0  0  0  0  0  0  0  0  0  0  0  0
    3.5042   -3.5607    1.8196 C   0  0  0  0  0  0  0  0  0  0  0  0
    4.8053   -3.8220    2.2374 C   0  0  0  0  0  0  0  0  0  0  0  0
    5.8416   -3.9808    1.3226 C   0  0  0  0  0  0  0  0  0  0  0  0
    5.5633   -3.8755   -0.0207 C   0  0  0  0  0  0  0  0  0  0  0  0
    4.2707   -3.6164   -0.4260 C   0  0  0  0  0  0  0  0  0  0  0  0
    0.2294    0.0753   -0.7280 C   0  0  0  0  0  0  0  0  0  0  0  0
    1.2735    0.8972   -0.3662 O   0  0  0  0  0  0  0  0  0  0  0  0
    1.2105    2.3092   -0.4261 C   0  0  0  0  0  0  0  0  0  0  0  0
    2.4601    2.9349    0.0172 C   0  0  0  0  0  0  0  0  0  0  0  0
    2.5286    4.3131    0.0161 C   0  0  0  0  0  0  0  0  0  0  0  0
    3.6481    5.0130    0.4108 C   0  0  0  0  0  0  0  0  0  0  0  0
    4.7724    4.3215    0.8336 C   0  0  0  0  0  0  0  0  0  0  0  0
    4.7128    2.9405    0.8378 C   0  0  0  0  0  0  0  0  0  0  0  0
    3.5780    2.2547    0.4373 C   0  0  0  0  0  0  0  0  0  0  0  0
   -0.9851    0.5709   -1.1867 C   0  0  0  0  0  0  0  0  0  0  0  0
  1  2  1  0
  2  3  2  0
  3  4  1  0
  4  5  1  0
  4  6  2  0
  6  7  1  0
  7  8  1  0
  7  9  2  0
  9 10  1  0
 10 11  1  0
 11 12  2  0
 12 13  1  0
 13 14  2  0
 14 15  1  0
 15 16  1  0
 16 17  1  0
 17 18  2  0
 18 19  1  0
 19 20  2  0
 20 21  1  0
 21 22  2  0
 14 23  1  0
 23 24  1  0
 24 25  1  0
 25 26  1  0
 26 27  2  0
 27 28  1  0
 28 29  2  0
 29 30  1  0
 30 31  2  0
 23 32  2  0
  9  2  1  0
 32 11  1  0
 22 17  1  0
 31 26  1  0
M  END
>  <zinc_id>  (426) 
ZINC000013472736

>  <ortholog_name>  (426) 
DRTS_PLAFK

>  <gene_name>  (426) 
DRTS_PLAFK

>  <affinity>  (426) 
6.76

>  <chembldocid>  (426) 
17636

>  <title>  (426) 
None

>  <reference.pubmed_id>  (426) 
14711307

>  <reference.doi>  (426) 
None

>  <reference.chembl_id>  (426) 
CHEMBL1148379

>  <reference.journal>  (426) 
J. Med. Chem.

>  <reference.year>  (426) 
2004

$$$$

     RDKit          3D

 32 35  0  0  0  0  0  0  0  0999 V2000
   -4.7471   -1.9248   -0.8000 C   0  0  0  0  0  0  0  0  0  0  0  0
   -4.9531   -0.5126   -0.3654 C   0  0  0  0  0  0  0  0  0  0  0  0
   -5.8406   -0.3169    0.6484 N   0  0  0  0  0  0  0  0  0  0  0  0
   -6.0767    0.9357    1.0932 C   0  0  0  0  0  0  0  0  0  0  0  0
   -6.9996    1.1754    2.1527 N   0  0  0  0  0  0  0  0  0  0  0  0
   -5.4328    1.9711    0.5296 N   0  0  0  0  0  0  0  0  0  0  0  0
   -4.5413    1.8105   -0.4834 C   0  0  0  0  0  0  0  0  0  0  0  0
   -3.8779    2.9056   -1.0597 N   0  0  0  0  0  0  0  0  0  0  0  0
   -4.2864    0.5418   -0.9515 C   0  0  0  0  0  0  0  0  0  0  0  0
   -3.3349    0.3032   -2.0419 C   0  0  0  0  0  0  0  0  0  0  0  0
   -2.0355   -0.2462   -1.5510 C   0  0  0  0  0  0  0  0  0  0  0  0
   -1.8272   -1.6056   -1.4391 C   0  0  0  0  0  0  0  0  0  0  0  0
   -0.6243   -2.1051   -0.9846 C   0  0  0  0  0  0  0  0  0  0  0  0
    0.4240   -1.2855   -0.6212 C   0  0  0  0  0  0  0  0  0  0  0  0
    1.6358   -1.7842   -0.1635 O   0  0  0  0  0  0  0  0  0  0  0  0
    1.8710   -3.1807   -0.0408 C   0  0  0  0  0  0  0  0  0  0  0  0
    3.2334   -3.4565    0.4684 C   0  0  0  0  0  0  0  0  0  0  0  0
    3.5042   -3.5607    1.8196 C   0  0  0  0  0  0  0  0  0  0  0  0
    4.8053   -3.8220    2.2374 C   0  0  0  0  0  0  0  0  0  0  0  0
    5.8416   -3.9808    1.3226 C   0  0  0  0  0  0  0  0  0  0  0  0
    5.5633   -3.8755   -0.0207 C   0  0  0  0  0  0  0  0  0  0  0  0
    4.2707   -3.6164   -0.4260 C   0  0  0  0  0  0  0  0  0  0  0  0
    0.2294    0.0753   -0.7280 C   0  0  0  0  0  0  0  0  0  0  0  0
    1.2735    0.8972   -0.3662 O   0  0  0  0  0  0  0  0  0  0  0  0
    1.2105    2.3092   -0.4261 C   0  0  0  0  0  0  0  0  0  0  0  0
    2.4601    2.9349    0.0172 C   0  0  0  0  0  0  0  0  0  0  0  0
    2.5286    4.3131    0.0161 C   0  0  0  0  0  0  0  0  0  0  0  0
    3.6481    5.0130    0.4108 C   0  0  0  0  0  0  0  0  0  0  0  0
    4.7724    4.3215    0.8336 C   0  0  0  0  0  0  0  0  0  0  0  0
    4.7128    2.9405    0.8378 C   0  0  0  0  0  0  0  0  0  0  0  0
    3.5780    2.2547    0.4373 C   0  0  0  0  0  0  0  0  0  0  0  0
   -0.9851    0.5709   -1.1867 C   0  0  0  0  0  0  0  0  0  0  0  0
  1  2  1  0
  2  3  2  0
  3  4  1  0
  4  5  1  0
  4  6  2  0
  6  7  1  0
  7  8  1  0
  7  9  2  0
  9 10  1  0
 10 11  1  0
 11 12  2  0
 12 13  1  0
 13 14  2  0
 14 15  1  0
 15 16  1  0
 16 17  1  0
 17 18  2  0
 18 19  1  0
 19 20  2  0
 20 21  1  0
 21 22  2  0
 14 23  1  0
 23 24  1  0
 24 25  1  0
 25 26  1  0
 26 27  2  0
 27 28  1  0
 28 29  2  0
 29 30  1  0
 30 31  2  0
 23 32  2  0
  9  2  1  0
 32 11  1  0
 22 17  1  0
 31 26  1  0
M  END
>  <zinc_id>  (427) 
ZINC000013472736

>  <ortholog_name>  (427) 
DRTS_PLAFK

>  <gene_name>  (427) 
DRTS_PLAFK

>  <affinity>  (427) 
7.70

>  <chembldocid>  (427) 
17636

>  <title>  (427) 
None

>  <reference.pubmed_id>  (427) 
14711307

>  <reference.doi>  (427) 
None

>  <reference.chembl_id>  (427) 
CHEMBL1148379

>  <reference.journal>  (427) 
J. Med. Chem.

>  <reference.year>  (427) 
2004

$$$$

     RDKit          3D

 32 35  0  0  0  0  0  0  0  0999 V2000
   -4.7471   -1.9248   -0.8000 C   0  0  0  0  0  0  0  0  0  0  0  0
   -4.9531   -0.5126   -0.3654 C   0  0  0  0  0  0  0  0  0  0  0  0
   -5.8406   -0.3169    0.6484 N   0  0  0  0  0  0  0  0  0  0  0  0
   -6.0767    0.9357    1.0932 C   0  0  0  0  0  0  0  0  0  0  0  0
   -6.9996    1.1754    2.1527 N   0  0  0  0  0  0  0  0  0  0  0  0
   -5.4328    1.9711    0.5296 N   0  0  0  0  0  0  0  0  0  0  0  0
   -4.5413    1.8105   -0.4834 C   0  0  0  0  0  0  0  0  0  0  0  0
   -3.8779    2.9056   -1.0597 N   0  0  0  0  0  0  0  0  0  0  0  0
   -4.2864    0.5418   -0.9515 C   0  0  0  0  0  0  0  0  0  0  0  0
   -3.3349    0.3032   -2.0419 C   0  0  0  0  0  0  0  0  0  0  0  0
   -2.0355   -0.2462   -1.5510 C   0  0  0  0  0  0  0  0  0  0  0  0
   -1.8272   -1.6056   -1.4391 C   0  0  0  0  0  0  0  0  0  0  0  0
   -0.6243   -2.1051   -0.9846 C   0  0  0  0  0  0  0  0  0  0  0  0
    0.4240   -1.2855   -0.6212 C   0  0  0  0  0  0  0  0  0  0  0  0
    1.6358   -1.7842   -0.1635 O   0  0  0  0  0  0  0  0  0  0  0  0
    1.8710   -3.1807   -0.0408 C   0  0  0  0  0  0  0  0  0  0  0  0
    3.2334   -3.4565    0.4684 C   0  0  0  0  0  0  0  0  0  0  0  0
    3.5042   -3.5607    1.8196 C   0  0  0  0  0  0  0  0  0  0  0  0
    4.8053   -3.8220    2.2374 C   0  0  0  0  0  0  0  0  0  0  0  0
    5.8416   -3.9808    1.3226 C   0  0  0  0  0  0  0  0  0  0  0  0
    5.5633   -3.8755   -0.0207 C   0  0  0  0  0  0  0  0  0  0  0  0
    4.2707   -3.6164   -0.4260 C   0  0  0  0  0  0  0  0  0  0  0  0
    0.2294    0.0753   -0.7280 C   0  0  0  0  0  0  0  0  0  0  0  0
    1.2735    0.8972   -0.3662 O   0  0  0  0  0  0  0  0  0  0  0  0
    1.2105    2.3092   -0.4261 C   0  0  0  0  0  0  0  0  0  0  0  0
    2.4601    2.9349    0.0172 C   0  0  0  0  0  0  0  0  0  0  0  0
    2.5286    4.3131    0.0161 C   0  0  0  0  0  0  0  0  0  0  0  0
    3.6481    5.0130    0.4108 C   0  0  0  0  0  0  0  0  0  0  0  0
    4.7724    4.3215    0.8336 C   0  0  0  0  0  0  0  0  0  0  0  0
    4.7128    2.9405    0.8378 C   0  0  0  0  0  0  0  0  0  0  0  0
    3.5780    2.2547    0.4373 C   0  0  0  0  0  0  0  0  0  0  0  0
   -0.9851    0.5709   -1.1867 C   0  0  0  0  0  0  0  0  0  0  0  0
  1  2  1  0
  2  3  2  0
  3  4  1  0
  4  5  1  0
  4  6  2  0
  6  7  1  0
  7  8  1  0
  7  9  2  0
  9 10  1  0
 10 11  1  0
 11 12  2  0
 12 13  1  0
 13 14  2  0
 14 15  1  0
 15 16  1  0
 16 17  1  0
 17 18  2  0
 18 19  1  0
 19 20  2  0
 20 21  1  0
 21 22  2  0
 14 23  1  0
 23 24  1  0
 24 25  1  0
 25 26  1  0
 26 27  2  0
 27 28  1  0
 28 29  2  0
 29 30  1  0
 30 31  2  0
 23 32  2  0
  9  2  1  0
 32 11  1  0
 22 17  1  0
 31 26  1  0
M  END
>  <zinc_id>  (428) 
ZINC000013472736

>  <ortholog_name>  (428) 
DRTS_PLAFK

>  <gene_name>  (428) 
DRTS_PLAFK

>  <affinity>  (428) 
7.70

>  <chembldocid>  (428) 
17636

>  <title>  (428) 
None

>  <reference.pubmed_id>  (428) 
14711307

>  <reference.doi>  (428) 
None

>  <reference.chembl_id>  (428) 
CHEMBL1148379

>  <reference.journal>  (428) 
J. Med. Chem.

>  <reference.year>  (428) 
2004

$$$$

     RDKit          3D

 32 35  0  0  0  0  0  0  0  0999 V2000
   -4.7471   -1.9248   -0.8000 C   0  0  0  0  0  0  0  0  0  0  0  0
   -4.9531   -0.5126   -0.3654 C   0  0  0  0  0  0  0  0  0  0  0  0
   -5.8406   -0.3169    0.6484 N   0  0  0  0  0  0  0  0  0  0  0  0
   -6.0767    0.9357    1.0932 C   0  0  0  0  0  0  0  0  0  0  0  0
   -6.9996    1.1754    2.1527 N   0  0  0  0  0  0  0  0  0  0  0  0
   -5.4328    1.9711    0.5296 N   0  0  0  0  0  0  0  0  0  0  0  0
   -4.5413    1.8105   -0.4834 C   0  0  0  0  0  0  0  0  0  0  0  0
   -3.8779    2.9056   -1.0597 N   0  0  0  0  0  0  0  0  0  0  0  0
   -4.2864    0.5418   -0.9515 C   0  0  0  0  0  0  0  0  0  0  0  0
   -3.3349    0.3032   -2.0419 C   0  0  0  0  0  0  0  0  0  0  0  0
   -2.0355   -0.2462   -1.5510 C   0  0  0  0  0  0  0  0  0  0  0  0
   -1.8272   -1.6056   -1.4391 C   0  0  0  0  0  0  0  0  0  0  0  0
   -0.6243   -2.1051   -0.9846 C   0  0  0  0  0  0  0  0  0  0  0  0
    0.4240   -1.2855   -0.6212 C   0  0  0  0  0  0  0  0  0  0  0  0
    1.6358   -1.7842   -0.1635 O   0  0  0  0  0  0  0  0  0  0  0  0
    1.8710   -3.1807   -0.0408 C   0  0  0  0  0  0  0  0  0  0  0  0
    3.2334   -3.4565    0.4684 C   0  0  0  0  0  0  0  0  0  0  0  0
    3.5042   -3.5607    1.8196 C   0  0  0  0  0  0  0  0  0  0  0  0
    4.8053   -3.8220    2.2374 C   0  0  0  0  0  0  0  0  0  0  0  0
    5.8416   -3.9808    1.3226 C   0  0  0  0  0  0  0  0  0  0  0  0
    5.5633   -3.8755   -0.0207 C   0  0  0  0  0  0  0  0  0  0  0  0
    4.2707   -3.6164   -0.4260 C   0  0  0  0  0  0  0  0  0  0  0  0
    0.2294    0.0753   -0.7280 C   0  0  0  0  0  0  0  0  0  0  0  0
    1.2735    0.8972   -0.3662 O   0  0  0  0  0  0  0  0  0  0  0  0
    1.2105    2.3092   -0.4261 C   0  0  0  0  0  0  0  0  0  0  0  0
    2.4601    2.9349    0.0172 C   0  0  0  0  0  0  0  0  0  0  0  0
    2.5286    4.3131    0.0161 C   0  0  0  0  0  0  0  0  0  0  0  0
    3.6481    5.0130    0.4108 C   0  0  0  0  0  0  0  0  0  0  0  0
    4.7724    4.3215    0.8336 C   0  0  0  0  0  0  0  0  0  0  0  0
    4.7128    2.9405    0.8378 C   0  0  0  0  0  0  0  0  0  0  0  0
    3.5780    2.2547    0.4373 C   0  0  0  0  0  0  0  0  0  0  0  0
   -0.9851    0.5709   -1.1867 C   0  0  0  0  0  0  0  0  0  0  0  0
  1  2  1  0
  2  3  2  0
  3  4  1  0
  4  5  1  0
  4  6  2  0
  6  7  1  0
  7  8  1  0
  7  9  2  0
  9 10  1  0
 10 11  1  0
 11 12  2  0
 12 13  1  0
 13 14  2  0
 14 15  1  0
 15 16  1  0
 16 17  1  0
 17 18  2  0
 18 19  1  0
 19 20  2  0
 20 21  1  0
 21 22  2  0
 14 23  1  0
 23 24  1  0
 24 25  1  0
 25 26  1  0
 26 27  2  0
 27 28  1  0
 28 29  2  0
 29 30  1  0
 30 31  2  0
 23 32  2  0
  9  2  1  0
 32 11  1  0
 22 17  1  0
 31 26  1  0
M  END
>  <zinc_id>  (429) 
ZINC000013472736

>  <ortholog_name>  (429) 
DRTS_PLAFK

>  <gene_name>  (429) 
DRTS_PLAFK

>  <affinity>  (429) 
6.62

>  <chembldocid>  (429) 
17636

>  <title>  (429) 
None

>  <reference.pubmed_id>  (429) 
14711307

>  <reference.doi>  (429) 
None

>  <reference.chembl_id>  (429) 
CHEMBL1148379

>  <reference.journal>  (429) 
J. Med. Chem.

>  <reference.year>  (429) 
2004

$$$$

     RDKit          3D

 32 35  0  0  0  0  0  0  0  0999 V2000
   -4.7471   -1.9248   -0.8000 C   0  0  0  0  0  0  0  0  0  0  0  0
   -4.9531   -0.5126   -0.3654 C   0  0  0  0  0  0  0  0  0  0  0  0
   -5.8406   -0.3169    0.6484 N   0  0  0  0  0  0  0  0  0  0  0  0
   -6.0767    0.9357    1.0932 C   0  0  0  0  0  0  0  0  0  0  0  0
   -6.9996    1.1754    2.1527 N   0  0  0  0  0  0  0  0  0  0  0  0
   -5.4328    1.9711    0.5296 N   0  0  0  0  0  0  0  0  0  0  0  0
   -4.5413    1.8105   -0.4834 C   0  0  0  0  0  0  0  0  0  0  0  0
   -3.8779    2.9056   -1.0597 N   0  0  0  0  0  0  0  0  0  0  0  0
   -4.2864    0.5418   -0.9515 C   0  0  0  0  0  0  0  0  0  0  0  0
   -3.3349    0.3032   -2.0419 C   0  0  0  0  0  0  0  0  0  0  0  0
   -2.0355   -0.2462   -1.5510 C   0  0  0  0  0  0  0  0  0  0  0  0
   -1.8272   -1.6056   -1.4391 C   0  0  0  0  0  0  0  0  0  0  0  0
   -0.6243   -2.1051   -0.9846 C   0  0  0  0  0  0  0  0  0  0  0  0
    0.4240   -1.2855   -0.6212 C   0  0  0  0  0  0  0  0  0  0  0  0
    1.6358   -1.7842   -0.1635 O   0  0  0  0  0  0  0  0  0  0  0  0
    1.8710   -3.1807   -0.0408 C   0  0  0  0  0  0  0  0  0  0  0  0
    3.2334   -3.4565    0.4684 C   0  0  0  0  0  0  0  0  0  0  0  0
    3.5042   -3.5607    1.8196 C   0  0  0  0  0  0  0  0  0  0  0  0
    4.8053   -3.8220    2.2374 C   0  0  0  0  0  0  0  0  0  0  0  0
    5.8416   -3.9808    1.3226 C   0  0  0  0  0  0  0  0  0  0  0  0
    5.5633   -3.8755   -0.0207 C   0  0  0  0  0  0  0  0  0  0  0  0
    4.2707   -3.6164   -0.4260 C   0  0  0  0  0  0  0  0  0  0  0  0
    0.2294    0.0753   -0.7280 C   0  0  0  0  0  0  0  0  0  0  0  0
    1.2735    0.8972   -0.3662 O   0  0  0  0  0  0  0  0  0  0  0  0
    1.2105    2.3092   -0.4261 C   0  0  0  0  0  0  0  0  0  0  0  0
    2.4601    2.9349    0.0172 C   0  0  0  0  0  0  0  0  0  0  0  0
    2.5286    4.3131    0.0161 C   0  0  0  0  0  0  0  0  0  0  0  0
    3.6481    5.0130    0.4108 C   0  0  0  0  0  0  0  0  0  0  0  0
    4.7724    4.3215    0.8336 C   0  0  0  0  0  0  0  0  0  0  0  0
    4.7128    2.9405    0.8378 C   0  0  0  0  0  0  0  0  0  0  0  0
    3.5780    2.2547    0.4373 C   0  0  0  0  0  0  0  0  0  0  0  0
   -0.9851    0.5709   -1.1867 C   0  0  0  0  0  0  0  0  0  0  0  0
  1  2  1  0
  2  3  2  0
  3  4  1  0
  4  5  1  0
  4  6  2  0
  6  7  1  0
  7  8  1  0
  7  9  2  0
  9 10  1  0
 10 11  1  0
 11 12  2  0
 12 13  1  0
 13 14  2  0
 14 15  1  0
 15 16  1  0
 16 17  1  0
 17 18  2  0
 18 19  1  0
 19 20  2  0
 20 21  1  0
 21 22  2  0
 14 23  1  0
 23 24  1  0
 24 25  1  0
 25 26  1  0
 26 27  2  0
 27 28  1  0
 28 29  2  0
 29 30  1  0
 30 31  2  0
 23 32  2  0
  9  2  1  0
 32 11  1  0
 22 17  1  0
 31 26  1  0
M  END
>  <zinc_id>  (430) 
ZINC000013472736

>  <ortholog_name>  (430) 
DRTS_PLAFK

>  <gene_name>  (430) 
DRTS_PLAFK

>  <affinity>  (430) 
5.58

>  <chembldocid>  (430) 
17636

>  <title>  (430) 
None

>  <reference.pubmed_id>  (430) 
14711307

>  <reference.doi>  (430) 
None

>  <reference.chembl_id>  (430) 
CHEMBL1148379

>  <reference.journal>  (430) 
J. Med. Chem.

>  <reference.year>  (430) 
2004

$$$$

     RDKit          3D

 32 35  0  0  0  0  0  0  0  0999 V2000
   -4.7471   -1.9248   -0.8000 C   0  0  0  0  0  0  0  0  0  0  0  0
   -4.9531   -0.5126   -0.3654 C   0  0  0  0  0  0  0  0  0  0  0  0
   -5.8406   -0.3169    0.6484 N   0  0  0  0  0  0  0  0  0  0  0  0
   -6.0767    0.9357    1.0932 C   0  0  0  0  0  0  0  0  0  0  0  0
   -6.9996    1.1754    2.1527 N   0  0  0  0  0  0  0  0  0  0  0  0
   -5.4328    1.9711    0.5296 N   0  0  0  0  0  0  0  0  0  0  0  0
   -4.5413    1.8105   -0.4834 C   0  0  0  0  0  0  0  0  0  0  0  0
   -3.8779    2.9056   -1.0597 N   0  0  0  0  0  0  0  0  0  0  0  0
   -4.2864    0.5418   -0.9515 C   0  0  0  0  0  0  0  0  0  0  0  0
   -3.3349    0.3032   -2.0419 C   0  0  0  0  0  0  0  0  0  0  0  0
   -2.0355   -0.2462   -1.5510 C   0  0  0  0  0  0  0  0  0  0  0  0
   -1.8272   -1.6056   -1.4391 C   0  0  0  0  0  0  0  0  0  0  0  0
   -0.6243   -2.1051   -0.9846 C   0  0  0  0  0  0  0  0  0  0  0  0
    0.4240   -1.2855   -0.6212 C   0  0  0  0  0  0  0  0  0  0  0  0
    1.6358   -1.7842   -0.1635 O   0  0  0  0  0  0  0  0  0  0  0  0
    1.8710   -3.1807   -0.0408 C   0  0  0  0  0  0  0  0  0  0  0  0
    3.2334   -3.4565    0.4684 C   0  0  0  0  0  0  0  0  0  0  0  0
    3.5042   -3.5607    1.8196 C   0  0  0  0  0  0  0  0  0  0  0  0
    4.8053   -3.8220    2.2374 C   0  0  0  0  0  0  0  0  0  0  0  0
    5.8416   -3.9808    1.3226 C   0  0  0  0  0  0  0  0  0  0  0  0
    5.5633   -3.8755   -0.0207 C   0  0  0  0  0  0  0  0  0  0  0  0
    4.2707   -3.6164   -0.4260 C   0  0  0  0  0  0  0  0  0  0  0  0
    0.2294    0.0753   -0.7280 C   0  0  0  0  0  0  0  0  0  0  0  0
    1.2735    0.8972   -0.3662 O   0  0  0  0  0  0  0  0  0  0  0  0
    1.2105    2.3092   -0.4261 C   0  0  0  0  0  0  0  0  0  0  0  0
    2.4601    2.9349    0.0172 C   0  0  0  0  0  0  0  0  0  0  0  0
    2.5286    4.3131    0.0161 C   0  0  0  0  0  0  0  0  0  0  0  0
    3.6481    5.0130    0.4108 C   0  0  0  0  0  0  0  0  0  0  0  0
    4.7724    4.3215    0.8336 C   0  0  0  0  0  0  0  0  0  0  0  0
    4.7128    2.9405    0.8378 C   0  0  0  0  0  0  0  0  0  0  0  0
    3.5780    2.2547    0.4373 C   0  0  0  0  0  0  0  0  0  0  0  0
   -0.9851    0.5709   -1.1867 C   0  0  0  0  0  0  0  0  0  0  0  0
  1  2  1  0
  2  3  2  0
  3  4  1  0
  4  5  1  0
  4  6  2  0
  6  7  1  0
  7  8  1  0
  7  9  2  0
  9 10  1  0
 10 11  1  0
 11 12  2  0
 12 13  1  0
 13 14  2  0
 14 15  1  0
 15 16  1  0
 16 17  1  0
 17 18  2  0
 18 19  1  0
 19 20  2  0
 20 21  1  0
 21 22  2  0
 14 23  1  0
 23 24  1  0
 24 25  1  0
 25 26  1  0
 26 27  2  0
 27 28  1  0
 28 29  2  0
 29 30  1  0
 30 31  2  0
 23 32  2  0
  9  2  1  0
 32 11  1  0
 22 17  1  0
 31 26  1  0
M  END
>  <zinc_id>  (431) 
ZINC000013472736

>  <ortholog_name>  (431) 
DRTS_PLAFK

>  <gene_name>  (431) 
DRTS_PLAFK

>  <affinity>  (431) 
7.52

>  <chembldocid>  (431) 
17636

>  <title>  (431) 
None

>  <reference.pubmed_id>  (431) 
14711307

>  <reference.doi>  (431) 
None

>  <reference.chembl_id>  (431) 
CHEMBL1148379

>  <reference.journal>  (431) 
J. Med. Chem.

>  <reference.year>  (431) 
2004

$$$$

     RDKit          3D

 32 35  0  0  0  0  0  0  0  0999 V2000
   -4.7471   -1.9248   -0.8000 C   0  0  0  0  0  0  0  0  0  0  0  0
   -4.9531   -0.5126   -0.3654 C   0  0  0  0  0  0  0  0  0  0  0  0
   -5.8406   -0.3169    0.6484 N   0  0  0  0  0  0  0  0  0  0  0  0
   -6.0767    0.9357    1.0932 C   0  0  0  0  0  0  0  0  0  0  0  0
   -6.9996    1.1754    2.1527 N   0  0  0  0  0  0  0  0  0  0  0  0
   -5.4328    1.9711    0.5296 N   0  0  0  0  0  0  0  0  0  0  0  0
   -4.5413    1.8105   -0.4834 C   0  0  0  0  0  0  0  0  0  0  0  0
   -3.8779    2.9056   -1.0597 N   0  0  0  0  0  0  0  0  0  0  0  0
   -4.2864    0.5418   -0.9515 C   0  0  0  0  0  0  0  0  0  0  0  0
   -3.3349    0.3032   -2.0419 C   0  0  0  0  0  0  0  0  0  0  0  0
   -2.0355   -0.2462   -1.5510 C   0  0  0  0  0  0  0  0  0  0  0  0
   -1.8272   -1.6056   -1.4391 C   0  0  0  0  0  0  0  0  0  0  0  0
   -0.6243   -2.1051   -0.9846 C   0  0  0  0  0  0  0  0  0  0  0  0
    0.4240   -1.2855   -0.6212 C   0  0  0  0  0  0  0  0  0  0  0  0
    1.6358   -1.7842   -0.1635 O   0  0  0  0  0  0  0  0  0  0  0  0
    1.8710   -3.1807   -0.0408 C   0  0  0  0  0  0  0  0  0  0  0  0
    3.2334   -3.4565    0.4684 C   0  0  0  0  0  0  0  0  0  0  0  0
    3.5042   -3.5607    1.8196 C   0  0  0  0  0  0  0  0  0  0  0  0
    4.8053   -3.8220    2.2374 C   0  0  0  0  0  0  0  0  0  0  0  0
    5.8416   -3.9808    1.3226 C   0  0  0  0  0  0  0  0  0  0  0  0
    5.5633   -3.8755   -0.0207 C   0  0  0  0  0  0  0  0  0  0  0  0
    4.2707   -3.6164   -0.4260 C   0  0  0  0  0  0  0  0  0  0  0  0
    0.2294    0.0753   -0.7280 C   0  0  0  0  0  0  0  0  0  0  0  0
    1.2735    0.8972   -0.3662 O   0  0  0  0  0  0  0  0  0  0  0  0
    1.2105    2.3092   -0.4261 C   0  0  0  0  0  0  0  0  0  0  0  0
    2.4601    2.9349    0.0172 C   0  0  0  0  0  0  0  0  0  0  0  0
    2.5286    4.3131    0.0161 C   0  0  0  0  0  0  0  0  0  0  0  0
    3.6481    5.0130    0.4108 C   0  0  0  0  0  0  0  0  0  0  0  0
    4.7724    4.3215    0.8336 C   0  0  0  0  0  0  0  0  0  0  0  0
    4.7128    2.9405    0.8378 C   0  0  0  0  0  0  0  0  0  0  0  0
    3.5780    2.2547    0.4373 C   0  0  0  0  0  0  0  0  0  0  0  0
   -0.9851    0.5709   -1.1867 C   0  0  0  0  0  0  0  0  0  0  0  0
  1  2  1  0
  2  3  2  0
  3  4  1  0
  4  5  1  0
  4  6  2  0
  6  7  1  0
  7  8  1  0
  7  9  2  0
  9 10  1  0
 10 11  1  0
 11 12  2  0
 12 13  1  0
 13 14  2  0
 14 15  1  0
 15 16  1  0
 16 17  1  0
 17 18  2  0
 18 19  1  0
 19 20  2  0
 20 21  1  0
 21 22  2  0
 14 23  1  0
 23 24  1  0
 24 25  1  0
 25 26  1  0
 26 27  2  0
 27 28  1  0
 28 29  2  0
 29 30  1  0
 30 31  2  0
 23 32  2  0
  9  2  1  0
 32 11  1  0
 22 17  1  0
 31 26  1  0
M  END
>  <zinc_id>  (432) 
ZINC000013472736

>  <ortholog_name>  (432) 
DRTS_PLAFK

>  <gene_name>  (432) 
DRTS_PLAFK

>  <affinity>  (432) 
5.51

>  <chembldocid>  (432) 
17636

>  <title>  (432) 
None

>  <reference.pubmed_id>  (432) 
14711307

>  <reference.doi>  (432) 
None

>  <reference.chembl_id>  (432) 
CHEMBL1148379

>  <reference.journal>  (432) 
J. Med. Chem.

>  <reference.year>  (432) 
2004

$$$$

     RDKit          3D

 32 35  0  0  0  0  0  0  0  0999 V2000
   -4.7471   -1.9248   -0.8000 C   0  0  0  0  0  0  0  0  0  0  0  0
   -4.9531   -0.5126   -0.3654 C   0  0  0  0  0  0  0  0  0  0  0  0
   -5.8406   -0.3169    0.6484 N   0  0  0  0  0  0  0  0  0  0  0  0
   -6.0767    0.9357    1.0932 C   0  0  0  0  0  0  0  0  0  0  0  0
   -6.9996    1.1754    2.1527 N   0  0  0  0  0  0  0  0  0  0  0  0
   -5.4328    1.9711    0.5296 N   0  0  0  0  0  0  0  0  0  0  0  0
   -4.5413    1.8105   -0.4834 C   0  0  0  0  0  0  0  0  0  0  0  0
   -3.8779    2.9056   -1.0597 N   0  0  0  0  0  0  0  0  0  0  0  0
   -4.2864    0.5418   -0.9515 C   0  0  0  0  0  0  0  0  0  0  0  0
   -3.3349    0.3032   -2.0419 C   0  0  0  0  0  0  0  0  0  0  0  0
   -2.0355   -0.2462   -1.5510 C   0  0  0  0  0  0  0  0  0  0  0  0
   -1.8272   -1.6056   -1.4391 C   0  0  0  0  0  0  0  0  0  0  0  0
   -0.6243   -2.1051   -0.9846 C   0  0  0  0  0  0  0  0  0  0  0  0
    0.4240   -1.2855   -0.6212 C   0  0  0  0  0  0  0  0  0  0  0  0
    1.6358   -1.7842   -0.1635 O   0  0  0  0  0  0  0  0  0  0  0  0
    1.8710   -3.1807   -0.0408 C   0  0  0  0  0  0  0  0  0  0  0  0
    3.2334   -3.4565    0.4684 C   0  0  0  0  0  0  0  0  0  0  0  0
    3.5042   -3.5607    1.8196 C   0  0  0  0  0  0  0  0  0  0  0  0
    4.8053   -3.8220    2.2374 C   0  0  0  0  0  0  0  0  0  0  0  0
    5.8416   -3.9808    1.3226 C   0  0  0  0  0  0  0  0  0  0  0  0
    5.5633   -3.8755   -0.0207 C   0  0  0  0  0  0  0  0  0  0  0  0
    4.2707   -3.6164   -0.4260 C   0  0  0  0  0  0  0  0  0  0  0  0
    0.2294    0.0753   -0.7280 C   0  0  0  0  0  0  0  0  0  0  0  0
    1.2735    0.8972   -0.3662 O   0  0  0  0  0  0  0  0  0  0  0  0
    1.2105    2.3092   -0.4261 C   0  0  0  0  0  0  0  0  0  0  0  0
    2.4601    2.9349    0.0172 C   0  0  0  0  0  0  0  0  0  0  0  0
    2.5286    4.3131    0.0161 C   0  0  0  0  0  0  0  0  0  0  0  0
    3.6481    5.0130    0.4108 C   0  0  0  0  0  0  0  0  0  0  0  0
    4.7724    4.3215    0.8336 C   0  0  0  0  0  0  0  0  0  0  0  0
    4.7128    2.9405    0.8378 C   0  0  0  0  0  0  0  0  0  0  0  0
    3.5780    2.2547    0.4373 C   0  0  0  0  0  0  0  0  0  0  0  0
   -0.9851    0.5709   -1.1867 C   0  0  0  0  0  0  0  0  0  0  0  0
  1  2  1  0
  2  3  2  0
  3  4  1  0
  4  5  1  0
  4  6  2  0
  6  7  1  0
  7  8  1  0
  7  9  2  0
  9 10  1  0
 10 11  1  0
 11 12  2  0
 12 13  1  0
 13 14  2  0
 14 15  1  0
 15 16  1  0
 16 17  1  0
 17 18  2  0
 18 19  1  0
 19 20  2  0
 20 21  1  0
 21 22  2  0
 14 23  1  0
 23 24  1  0
 24 25  1  0
 25 26  1  0
 26 27  2  0
 27 28  1  0
 28 29  2  0
 29 30  1  0
 30 31  2  0
 23 32  2  0
  9  2  1  0
 32 11  1  0
 22 17  1  0
 31 26  1  0
M  END
>  <zinc_id>  (433) 
ZINC000013472736

>  <ortholog_name>  (433) 
DRTS_PLAFK

>  <gene_name>  (433) 
DRTS_PLAFK

>  <affinity>  (433) 
5.36

>  <chembldocid>  (433) 
17636

>  <title>  (433) 
None

>  <reference.pubmed_id>  (433) 
14711307

>  <reference.doi>  (433) 
None

>  <reference.chembl_id>  (433) 
CHEMBL1148379

>  <reference.journal>  (433) 
J. Med. Chem.

>  <reference.year>  (433) 
2004

$$$$

     RDKit          3D

 32 35  0  0  0  0  0  0  0  0999 V2000
   -4.7471   -1.9248   -0.8000 C   0  0  0  0  0  0  0  0  0  0  0  0
   -4.9531   -0.5126   -0.3654 C   0  0  0  0  0  0  0  0  0  0  0  0
   -5.8406   -0.3169    0.6484 N   0  0  0  0  0  0  0  0  0  0  0  0
   -6.0767    0.9357    1.0932 C   0  0  0  0  0  0  0  0  0  0  0  0
   -6.9996    1.1754    2.1527 N   0  0  0  0  0  0  0  0  0  0  0  0
   -5.4328    1.9711    0.5296 N   0  0  0  0  0  0  0  0  0  0  0  0
   -4.5413    1.8105   -0.4834 C   0  0  0  0  0  0  0  0  0  0  0  0
   -3.8779    2.9056   -1.0597 N   0  0  0  0  0  0  0  0  0  0  0  0
   -4.2864    0.5418   -0.9515 C   0  0  0  0  0  0  0  0  0  0  0  0
   -3.3349    0.3032   -2.0419 C   0  0  0  0  0  0  0  0  0  0  0  0
   -2.0355   -0.2462   -1.5510 C   0  0  0  0  0  0  0  0  0  0  0  0
   -1.8272   -1.6056   -1.4391 C   0  0  0  0  0  0  0  0  0  0  0  0
   -0.6243   -2.1051   -0.9846 C   0  0  0  0  0  0  0  0  0  0  0  0
    0.4240   -1.2855   -0.6212 C   0  0  0  0  0  0  0  0  0  0  0  0
    1.6358   -1.7842   -0.1635 O   0  0  0  0  0  0  0  0  0  0  0  0
    1.8710   -3.1807   -0.0408 C   0  0  0  0  0  0  0  0  0  0  0  0
    3.2334   -3.4565    0.4684 C   0  0  0  0  0  0  0  0  0  0  0  0
    3.5042   -3.5607    1.8196 C   0  0  0  0  0  0  0  0  0  0  0  0
    4.8053   -3.8220    2.2374 C   0  0  0  0  0  0  0  0  0  0  0  0
    5.8416   -3.9808    1.3226 C   0  0  0  0  0  0  0  0  0  0  0  0
    5.5633   -3.8755   -0.0207 C   0  0  0  0  0  0  0  0  0  0  0  0
    4.2707   -3.6164   -0.4260 C   0  0  0  0  0  0  0  0  0  0  0  0
    0.2294    0.0753   -0.7280 C   0  0  0  0  0  0  0  0  0  0  0  0
    1.2735    0.8972   -0.3662 O   0  0  0  0  0  0  0  0  0  0  0  0
    1.2105    2.3092   -0.4261 C   0  0  0  0  0  0  0  0  0  0  0  0
    2.4601    2.9349    0.0172 C   0  0  0  0  0  0  0  0  0  0  0  0
    2.5286    4.3131    0.0161 C   0  0  0  0  0  0  0  0  0  0  0  0
    3.6481    5.0130    0.4108 C   0  0  0  0  0  0  0  0  0  0  0  0
    4.7724    4.3215    0.8336 C   0  0  0  0  0  0  0  0  0  0  0  0
    4.7128    2.9405    0.8378 C   0  0  0  0  0  0  0  0  0  0  0  0
    3.5780    2.2547    0.4373 C   0  0  0  0  0  0  0  0  0  0  0  0
   -0.9851    0.5709   -1.1867 C   0  0  0  0  0  0  0  0  0  0  0  0
  1  2  1  0
  2  3  2  0
  3  4  1  0
  4  5  1  0
  4  6  2  0
  6  7  1  0
  7  8  1  0
  7  9  2  0
  9 10  1  0
 10 11  1  0
 11 12  2  0
 12 13  1  0
 13 14  2  0
 14 15  1  0
 15 16  1  0
 16 17  1  0
 17 18  2  0
 18 19  1  0
 19 20  2  0
 20 21  1  0
 21 22  2  0
 14 23  1  0
 23 24  1  0
 24 25  1  0
 25 26  1  0
 26 27  2  0
 27 28  1  0
 28 29  2  0
 29 30  1  0
 30 31  2  0
 23 32  2  0
  9  2  1  0
 32 11  1  0
 22 17  1  0
 31 26  1  0
M  END
>  <zinc_id>  (434) 
ZINC000013472736

>  <ortholog_name>  (434) 
DRTS_PLAFK

>  <gene_name>  (434) 
DRTS_PLAFK

>  <affinity>  (434) 
5.36

>  <chembldocid>  (434) 
16871

>  <title>  (434) 
None

>  <reference.pubmed_id>  (434) 
11881993

>  <reference.doi>  (434) 
None

>  <reference.chembl_id>  (434) 
CHEMBL1135602

>  <reference.journal>  (434) 
J. Med. Chem.

>  <reference.year>  (434) 
2002

$$$$

     RDKit          3D

 32 35  0  0  0  0  0  0  0  0999 V2000
   -4.7471   -1.9248   -0.8000 C   0  0  0  0  0  0  0  0  0  0  0  0
   -4.9531   -0.5126   -0.3654 C   0  0  0  0  0  0  0  0  0  0  0  0
   -5.8406   -0.3169    0.6484 N   0  0  0  0  0  0  0  0  0  0  0  0
   -6.0767    0.9357    1.0932 C   0  0  0  0  0  0  0  0  0  0  0  0
   -6.9996    1.1754    2.1527 N   0  0  0  0  0  0  0  0  0  0  0  0
   -5.4328    1.9711    0.5296 N   0  0  0  0  0  0  0  0  0  0  0  0
   -4.5413    1.8105   -0.4834 C   0  0  0  0  0  0  0  0  0  0  0  0
   -3.8779    2.9056   -1.0597 N   0  0  0  0  0  0  0  0  0  0  0  0
   -4.2864    0.5418   -0.9515 C   0  0  0  0  0  0  0  0  0  0  0  0
   -3.3349    0.3032   -2.0419 C   0  0  0  0  0  0  0  0  0  0  0  0
   -2.0355   -0.2462   -1.5510 C   0  0  0  0  0  0  0  0  0  0  0  0
   -1.8272   -1.6056   -1.4391 C   0  0  0  0  0  0  0  0  0  0  0  0
   -0.6243   -2.1051   -0.9846 C   0  0  0  0  0  0  0  0  0  0  0  0
    0.4240   -1.2855   -0.6212 C   0  0  0  0  0  0  0  0  0  0  0  0
    1.6358   -1.7842   -0.1635 O   0  0  0  0  0  0  0  0  0  0  0  0
    1.8710   -3.1807   -0.0408 C   0  0  0  0  0  0  0  0  0  0  0  0
    3.2334   -3.4565    0.4684 C   0  0  0  0  0  0  0  0  0  0  0  0
    3.5042   -3.5607    1.8196 C   0  0  0  0  0  0  0  0  0  0  0  0
    4.8053   -3.8220    2.2374 C   0  0  0  0  0  0  0  0  0  0  0  0
    5.8416   -3.9808    1.3226 C   0  0  0  0  0  0  0  0  0  0  0  0
    5.5633   -3.8755   -0.0207 C   0  0  0  0  0  0  0  0  0  0  0  0
    4.2707   -3.6164   -0.4260 C   0  0  0  0  0  0  0  0  0  0  0  0
    0.2294    0.0753   -0.7280 C   0  0  0  0  0  0  0  0  0  0  0  0
    1.2735    0.8972   -0.3662 O   0  0  0  0  0  0  0  0  0  0  0  0
    1.2105    2.3092   -0.4261 C   0  0  0  0  0  0  0  0  0  0  0  0
    2.4601    2.9349    0.0172 C   0  0  0  0  0  0  0  0  0  0  0  0
    2.5286    4.3131    0.0161 C   0  0  0  0  0  0  0  0  0  0  0  0
    3.6481    5.0130    0.4108 C   0  0  0  0  0  0  0  0  0  0  0  0
    4.7724    4.3215    0.8336 C   0  0  0  0  0  0  0  0  0  0  0  0
    4.7128    2.9405    0.8378 C   0  0  0  0  0  0  0  0  0  0  0  0
    3.5780    2.2547    0.4373 C   0  0  0  0  0  0  0  0  0  0  0  0
   -0.9851    0.5709   -1.1867 C   0  0  0  0  0  0  0  0  0  0  0  0
  1  2  1  0
  2  3  2  0
  3  4  1  0
  4  5  1  0
  4  6  2  0
  6  7  1  0
  7  8  1  0
  7  9  2  0
  9 10  1  0
 10 11  1  0
 11 12  2  0
 12 13  1  0
 13 14  2  0
 14 15  1  0
 15 16  1  0
 16 17  1  0
 17 18  2  0
 18 19  1  0
 19 20  2  0
 20 21  1  0
 21 22  2  0
 14 23  1  0
 23 24  1  0
 24 25  1  0
 25 26  1  0
 26 27  2  0
 27 28  1  0
 28 29  2  0
 29 30  1  0
 30 31  2  0
 23 32  2  0
  9  2  1  0
 32 11  1  0
 22 17  1  0
 31 26  1  0
M  END
>  <zinc_id>  (435) 
ZINC000013472736

>  <ortholog_name>  (435) 
DRTS_PLAFK

>  <gene_name>  (435) 
DRTS_PLAFK

>  <affinity>  (435) 
5.35

>  <chembldocid>  (435) 
17636

>  <title>  (435) 
None

>  <reference.pubmed_id>  (435) 
14711307

>  <reference.doi>  (435) 
None

>  <reference.chembl_id>  (435) 
CHEMBL1148379

>  <reference.journal>  (435) 
J. Med. Chem.

>  <reference.year>  (435) 
2004

$$$$

     RDKit          3D

 32 35  0  0  0  0  0  0  0  0999 V2000
   -4.7471   -1.9248   -0.8000 C   0  0  0  0  0  0  0  0  0  0  0  0
   -4.9531   -0.5126   -0.3654 C   0  0  0  0  0  0  0  0  0  0  0  0
   -5.8406   -0.3169    0.6484 N   0  0  0  0  0  0  0  0  0  0  0  0
   -6.0767    0.9357    1.0932 C   0  0  0  0  0  0  0  0  0  0  0  0
   -6.9996    1.1754    2.1527 N   0  0  0  0  0  0  0  0  0  0  0  0
   -5.4328    1.9711    0.5296 N   0  0  0  0  0  0  0  0  0  0  0  0
   -4.5413    1.8105   -0.4834 C   0  0  0  0  0  0  0  0  0  0  0  0
   -3.8779    2.9056   -1.0597 N   0  0  0  0  0  0  0  0  0  0  0  0
   -4.2864    0.5418   -0.9515 C   0  0  0  0  0  0  0  0  0  0  0  0
   -3.3349    0.3032   -2.0419 C   0  0  0  0  0  0  0  0  0  0  0  0
   -2.0355   -0.2462   -1.5510 C   0  0  0  0  0  0  0  0  0  0  0  0
   -1.8272   -1.6056   -1.4391 C   0  0  0  0  0  0  0  0  0  0  0  0
   -0.6243   -2.1051   -0.9846 C   0  0  0  0  0  0  0  0  0  0  0  0
    0.4240   -1.2855   -0.6212 C   0  0  0  0  0  0  0  0  0  0  0  0
    1.6358   -1.7842   -0.1635 O   0  0  0  0  0  0  0  0  0  0  0  0
    1.8710   -3.1807   -0.0408 C   0  0  0  0  0  0  0  0  0  0  0  0
    3.2334   -3.4565    0.4684 C   0  0  0  0  0  0  0  0  0  0  0  0
    3.5042   -3.5607    1.8196 C   0  0  0  0  0  0  0  0  0  0  0  0
    4.8053   -3.8220    2.2374 C   0  0  0  0  0  0  0  0  0  0  0  0
    5.8416   -3.9808    1.3226 C   0  0  0  0  0  0  0  0  0  0  0  0
    5.5633   -3.8755   -0.0207 C   0  0  0  0  0  0  0  0  0  0  0  0
    4.2707   -3.6164   -0.4260 C   0  0  0  0  0  0  0  0  0  0  0  0
    0.2294    0.0753   -0.7280 C   0  0  0  0  0  0  0  0  0  0  0  0
    1.2735    0.8972   -0.3662 O   0  0  0  0  0  0  0  0  0  0  0  0
    1.2105    2.3092   -0.4261 C   0  0  0  0  0  0  0  0  0  0  0  0
    2.4601    2.9349    0.0172 C   0  0  0  0  0  0  0  0  0  0  0  0
    2.5286    4.3131    0.0161 C   0  0  0  0  0  0  0  0  0  0  0  0
    3.6481    5.0130    0.4108 C   0  0  0  0  0  0  0  0  0  0  0  0
    4.7724    4.3215    0.8336 C   0  0  0  0  0  0  0  0  0  0  0  0
    4.7128    2.9405    0.8378 C   0  0  0  0  0  0  0  0  0  0  0  0
    3.5780    2.2547    0.4373 C   0  0  0  0  0  0  0  0  0  0  0  0
   -0.9851    0.5709   -1.1867 C   0  0  0  0  0  0  0  0  0  0  0  0
  1  2  1  0
  2  3  2  0
  3  4  1  0
  4  5  1  0
  4  6  2  0
  6  7  1  0
  7  8  1  0
  7  9  2  0
  9 10  1  0
 10 11  1  0
 11 12  2  0
 12 13  1  0
 13 14  2  0
 14 15  1  0
 15 16  1  0
 16 17  1  0
 17 18  2  0
 18 19  1  0
 19 20  2  0
 20 21  1  0
 21 22  2  0
 14 23  1  0
 23 24  1  0
 24 25  1  0
 25 26  1  0
 26 27  2  0
 27 28  1  0
 28 29  2  0
 29 30  1  0
 30 31  2  0
 23 32  2  0
  9  2  1  0
 32 11  1  0
 22 17  1  0
 31 26  1  0
M  END
>  <zinc_id>  (436) 
ZINC000013472736

>  <ortholog_name>  (436) 
DRTS_PLAFK

>  <gene_name>  (436) 
DRTS_PLAFK

>  <affinity>  (436) 
7.29

>  <chembldocid>  (436) 
16871

>  <title>  (436) 
None

>  <reference.pubmed_id>  (436) 
11881993

>  <reference.doi>  (436) 
None

>  <reference.chembl_id>  (436) 
CHEMBL1135602

>  <reference.journal>  (436) 
J. Med. Chem.

>  <reference.year>  (436) 
2002

$$$$

     RDKit          3D

 32 35  0  0  0  0  0  0  0  0999 V2000
   -4.7471   -1.9248   -0.8000 C   0  0  0  0  0  0  0  0  0  0  0  0
   -4.9531   -0.5126   -0.3654 C   0  0  0  0  0  0  0  0  0  0  0  0
   -5.8406   -0.3169    0.6484 N   0  0  0  0  0  0  0  0  0  0  0  0
   -6.0767    0.9357    1.0932 C   0  0  0  0  0  0  0  0  0  0  0  0
   -6.9996    1.1754    2.1527 N   0  0  0  0  0  0  0  0  0  0  0  0
   -5.4328    1.9711    0.5296 N   0  0  0  0  0  0  0  0  0  0  0  0
   -4.5413    1.8105   -0.4834 C   0  0  0  0  0  0  0  0  0  0  0  0
   -3.8779    2.9056   -1.0597 N   0  0  0  0  0  0  0  0  0  0  0  0
   -4.2864    0.5418   -0.9515 C   0  0  0  0  0  0  0  0  0  0  0  0
   -3.3349    0.3032   -2.0419 C   0  0  0  0  0  0  0  0  0  0  0  0
   -2.0355   -0.2462   -1.5510 C   0  0  0  0  0  0  0  0  0  0  0  0
   -1.8272   -1.6056   -1.4391 C   0  0  0  0  0  0  0  0  0  0  0  0
   -0.6243   -2.1051   -0.9846 C   0  0  0  0  0  0  0  0  0  0  0  0
    0.4240   -1.2855   -0.6212 C   0  0  0  0  0  0  0  0  0  0  0  0
    1.6358   -1.7842   -0.1635 O   0  0  0  0  0  0  0  0  0  0  0  0
    1.8710   -3.1807   -0.0408 C   0  0  0  0  0  0  0  0  0  0  0  0
    3.2334   -3.4565    0.4684 C   0  0  0  0  0  0  0  0  0  0  0  0
    3.5042   -3.5607    1.8196 C   0  0  0  0  0  0  0  0  0  0  0  0
    4.8053   -3.8220    2.2374 C   0  0  0  0  0  0  0  0  0  0  0  0
    5.8416   -3.9808    1.3226 C   0  0  0  0  0  0  0  0  0  0  0  0
    5.5633   -3.8755   -0.0207 C   0  0  0  0  0  0  0  0  0  0  0  0
    4.2707   -3.6164   -0.4260 C   0  0  0  0  0  0  0  0  0  0  0  0
    0.2294    0.0753   -0.7280 C   0  0  0  0  0  0  0  0  0  0  0  0
    1.2735    0.8972   -0.3662 O   0  0  0  0  0  0  0  0  0  0  0  0
    1.2105    2.3092   -0.4261 C   0  0  0  0  0  0  0  0  0  0  0  0
    2.4601    2.9349    0.0172 C   0  0  0  0  0  0  0  0  0  0  0  0
    2.5286    4.3131    0.0161 C   0  0  0  0  0  0  0  0  0  0  0  0
    3.6481    5.0130    0.4108 C   0  0  0  0  0  0  0  0  0  0  0  0
    4.7724    4.3215    0.8336 C   0  0  0  0  0  0  0  0  0  0  0  0
    4.7128    2.9405    0.8378 C   0  0  0  0  0  0  0  0  0  0  0  0
    3.5780    2.2547    0.4373 C   0  0  0  0  0  0  0  0  0  0  0  0
   -0.9851    0.5709   -1.1867 C   0  0  0  0  0  0  0  0  0  0  0  0
  1  2  1  0
  2  3  2  0
  3  4  1  0
  4  5  1  0
  4  6  2  0
  6  7  1  0
  7  8  1  0
  7  9  2  0
  9 10  1  0
 10 11  1  0
 11 12  2  0
 12 13  1  0
 13 14  2  0
 14 15  1  0
 15 16  1  0
 16 17  1  0
 17 18  2  0
 18 19  1  0
 19 20  2  0
 20 21  1  0
 21 22  2  0
 14 23  1  0
 23 24  1  0
 24 25  1  0
 25 26  1  0
 26 27  2  0
 27 28  1  0
 28 29  2  0
 29 30  1  0
 30 31  2  0
 23 32  2  0
  9  2  1  0
 32 11  1  0
 22 17  1  0
 31 26  1  0
M  END
>  <zinc_id>  (437) 
ZINC000013472736

>  <ortholog_name>  (437) 
DRTS_PLAFK

>  <gene_name>  (437) 
DRTS_PLAFK

>  <affinity>  (437) 
6.17

>  <chembldocid>  (437) 
17636

>  <title>  (437) 
None

>  <reference.pubmed_id>  (437) 
14711307

>  <reference.doi>  (437) 
None

>  <reference.chembl_id>  (437) 
CHEMBL1148379

>  <reference.journal>  (437) 
J. Med. Chem.

>  <reference.year>  (437) 
2004

$$$$

     RDKit          3D

 32 35  0  0  0  0  0  0  0  0999 V2000
   -4.7471   -1.9248   -0.8000 C   0  0  0  0  0  0  0  0  0  0  0  0
   -4.9531   -0.5126   -0.3654 C   0  0  0  0  0  0  0  0  0  0  0  0
   -5.8406   -0.3169    0.6484 N   0  0  0  0  0  0  0  0  0  0  0  0
   -6.0767    0.9357    1.0932 C   0  0  0  0  0  0  0  0  0  0  0  0
   -6.9996    1.1754    2.1527 N   0  0  0  0  0  0  0  0  0  0  0  0
   -5.4328    1.9711    0.5296 N   0  0  0  0  0  0  0  0  0  0  0  0
   -4.5413    1.8105   -0.4834 C   0  0  0  0  0  0  0  0  0  0  0  0
   -3.8779    2.9056   -1.0597 N   0  0  0  0  0  0  0  0  0  0  0  0
   -4.2864    0.5418   -0.9515 C   0  0  0  0  0  0  0  0  0  0  0  0
   -3.3349    0.3032   -2.0419 C   0  0  0  0  0  0  0  0  0  0  0  0
   -2.0355   -0.2462   -1.5510 C   0  0  0  0  0  0  0  0  0  0  0  0
   -1.8272   -1.6056   -1.4391 C   0  0  0  0  0  0  0  0  0  0  0  0
   -0.6243   -2.1051   -0.9846 C   0  0  0  0  0  0  0  0  0  0  0  0
    0.4240   -1.2855   -0.6212 C   0  0  0  0  0  0  0  0  0  0  0  0
    1.6358   -1.7842   -0.1635 O   0  0  0  0  0  0  0  0  0  0  0  0
    1.8710   -3.1807   -0.0408 C   0  0  0  0  0  0  0  0  0  0  0  0
    3.2334   -3.4565    0.4684 C   0  0  0  0  0  0  0  0  0  0  0  0
    3.5042   -3.5607    1.8196 C   0  0  0  0  0  0  0  0  0  0  0  0
    4.8053   -3.8220    2.2374 C   0  0  0  0  0  0  0  0  0  0  0  0
    5.8416   -3.9808    1.3226 C   0  0  0  0  0  0  0  0  0  0  0  0
    5.5633   -3.8755   -0.0207 C   0  0  0  0  0  0  0  0  0  0  0  0
    4.2707   -3.6164   -0.4260 C   0  0  0  0  0  0  0  0  0  0  0  0
    0.2294    0.0753   -0.7280 C   0  0  0  0  0  0  0  0  0  0  0  0
    1.2735    0.8972   -0.3662 O   0  0  0  0  0  0  0  0  0  0  0  0
    1.2105    2.3092   -0.4261 C   0  0  0  0  0  0  0  0  0  0  0  0
    2.4601    2.9349    0.0172 C   0  0  0  0  0  0  0  0  0  0  0  0
    2.5286    4.3131    0.0161 C   0  0  0  0  0  0  0  0  0  0  0  0
    3.6481    5.0130    0.4108 C   0  0  0  0  0  0  0  0  0  0  0  0
    4.7724    4.3215    0.8336 C   0  0  0  0  0  0  0  0  0  0  0  0
    4.7128    2.9405    0.8378 C   0  0  0  0  0  0  0  0  0  0  0  0
    3.5780    2.2547    0.4373 C   0  0  0  0  0  0  0  0  0  0  0  0
   -0.9851    0.5709   -1.1867 C   0  0  0  0  0  0  0  0  0  0  0  0
  1  2  1  0
  2  3  2  0
  3  4  1  0
  4  5  1  0
  4  6  2  0
  6  7  1  0
  7  8  1  0
  7  9  2  0
  9 10  1  0
 10 11  1  0
 11 12  2  0
 12 13  1  0
 13 14  2  0
 14 15  1  0
 15 16  1  0
 16 17  1  0
 17 18  2  0
 18 19  1  0
 19 20  2  0
 20 21  1  0
 21 22  2  0
 14 23  1  0
 23 24  1  0
 24 25  1  0
 25 26  1  0
 26 27  2  0
 27 28  1  0
 28 29  2  0
 29 30  1  0
 30 31  2  0
 23 32  2  0
  9  2  1  0
 32 11  1  0
 22 17  1  0
 31 26  1  0
M  END
>  <zinc_id>  (438) 
ZINC000013472736

>  <ortholog_name>  (438) 
DRTS_PLAFK

>  <gene_name>  (438) 
DRTS_PLAFK

>  <affinity>  (438) 
8.07

>  <chembldocid>  (438) 
16871

>  <title>  (438) 
None

>  <reference.pubmed_id>  (438) 
11881993

>  <reference.doi>  (438) 
None

>  <reference.chembl_id>  (438) 
CHEMBL1135602

>  <reference.journal>  (438) 
J. Med. Chem.

>  <reference.year>  (438) 
2002

$$$$

     RDKit          3D

 32 35  0  0  0  0  0  0  0  0999 V2000
   -4.7471   -1.9248   -0.8000 C   0  0  0  0  0  0  0  0  0  0  0  0
   -4.9531   -0.5126   -0.3654 C   0  0  0  0  0  0  0  0  0  0  0  0
   -5.8406   -0.3169    0.6484 N   0  0  0  0  0  0  0  0  0  0  0  0
   -6.0767    0.9357    1.0932 C   0  0  0  0  0  0  0  0  0  0  0  0
   -6.9996    1.1754    2.1527 N   0  0  0  0  0  0  0  0  0  0  0  0
   -5.4328    1.9711    0.5296 N   0  0  0  0  0  0  0  0  0  0  0  0
   -4.5413    1.8105   -0.4834 C   0  0  0  0  0  0  0  0  0  0  0  0
   -3.8779    2.9056   -1.0597 N   0  0  0  0  0  0  0  0  0  0  0  0
   -4.2864    0.5418   -0.9515 C   0  0  0  0  0  0  0  0  0  0  0  0
   -3.3349    0.3032   -2.0419 C   0  0  0  0  0  0  0  0  0  0  0  0
   -2.0355   -0.2462   -1.5510 C   0  0  0  0  0  0  0  0  0  0  0  0
   -1.8272   -1.6056   -1.4391 C   0  0  0  0  0  0  0  0  0  0  0  0
   -0.6243   -2.1051   -0.9846 C   0  0  0  0  0  0  0  0  0  0  0  0
    0.4240   -1.2855   -0.6212 C   0  0  0  0  0  0  0  0  0  0  0  0
    1.6358   -1.7842   -0.1635 O   0  0  0  0  0  0  0  0  0  0  0  0
    1.8710   -3.1807   -0.0408 C   0  0  0  0  0  0  0  0  0  0  0  0
    3.2334   -3.4565    0.4684 C   0  0  0  0  0  0  0  0  0  0  0  0
    3.5042   -3.5607    1.8196 C   0  0  0  0  0  0  0  0  0  0  0  0
    4.8053   -3.8220    2.2374 C   0  0  0  0  0  0  0  0  0  0  0  0
    5.8416   -3.9808    1.3226 C   0  0  0  0  0  0  0  0  0  0  0  0
    5.5633   -3.8755   -0.0207 C   0  0  0  0  0  0  0  0  0  0  0  0
    4.2707   -3.6164   -0.4260 C   0  0  0  0  0  0  0  0  0  0  0  0
    0.2294    0.0753   -0.7280 C   0  0  0  0  0  0  0  0  0  0  0  0
    1.2735    0.8972   -0.3662 O   0  0  0  0  0  0  0  0  0  0  0  0
    1.2105    2.3092   -0.4261 C   0  0  0  0  0  0  0  0  0  0  0  0
    2.4601    2.9349    0.0172 C   0  0  0  0  0  0  0  0  0  0  0  0
    2.5286    4.3131    0.0161 C   0  0  0  0  0  0  0  0  0  0  0  0
    3.6481    5.0130    0.4108 C   0  0  0  0  0  0  0  0  0  0  0  0
    4.7724    4.3215    0.8336 C   0  0  0  0  0  0  0  0  0  0  0  0
    4.7128    2.9405    0.8378 C   0  0  0  0  0  0  0  0  0  0  0  0
    3.5780    2.2547    0.4373 C   0  0  0  0  0  0  0  0  0  0  0  0
   -0.9851    0.5709   -1.1867 C   0  0  0  0  0  0  0  0  0  0  0  0
  1  2  1  0
  2  3  2  0
  3  4  1  0
  4  5  1  0
  4  6  2  0
  6  7  1  0
  7  8  1  0
  7  9  2  0
  9 10  1  0
 10 11  1  0
 11 12  2  0
 12 13  1  0
 13 14  2  0
 14 15  1  0
 15 16  1  0
 16 17  1  0
 17 18  2  0
 18 19  1  0
 19 20  2  0
 20 21  1  0
 21 22  2  0
 14 23  1  0
 23 24  1  0
 24 25  1  0
 25 26  1  0
 26 27  2  0
 27 28  1  0
 28 29  2  0
 29 30  1  0
 30 31  2  0
 23 32  2  0
  9  2  1  0
 32 11  1  0
 22 17  1  0
 31 26  1  0
M  END
>  <zinc_id>  (439) 
ZINC000013472736

>  <ortholog_name>  (439) 
DRTS_PLAFK

>  <gene_name>  (439) 
DRTS_PLAFK

>  <affinity>  (439) 
8.07

>  <chembldocid>  (439) 
17636

>  <title>  (439) 
None

>  <reference.pubmed_id>  (439) 
14711307

>  <reference.doi>  (439) 
None

>  <reference.chembl_id>  (439) 
CHEMBL1148379

>  <reference.journal>  (439) 
J. Med. Chem.

>  <reference.year>  (439) 
2004

$$$$

     RDKit          3D

 32 35  0  0  0  0  0  0  0  0999 V2000
   -4.7471   -1.9248   -0.8000 C   0  0  0  0  0  0  0  0  0  0  0  0
   -4.9531   -0.5126   -0.3654 C   0  0  0  0  0  0  0  0  0  0  0  0
   -5.8406   -0.3169    0.6484 N   0  0  0  0  0  0  0  0  0  0  0  0
   -6.0767    0.9357    1.0932 C   0  0  0  0  0  0  0  0  0  0  0  0
   -6.9996    1.1754    2.1527 N   0  0  0  0  0  0  0  0  0  0  0  0
   -5.4328    1.9711    0.5296 N   0  0  0  0  0  0  0  0  0  0  0  0
   -4.5413    1.8105   -0.4834 C   0  0  0  0  0  0  0  0  0  0  0  0
   -3.8779    2.9056   -1.0597 N   0  0  0  0  0  0  0  0  0  0  0  0
   -4.2864    0.5418   -0.9515 C   0  0  0  0  0  0  0  0  0  0  0  0
   -3.3349    0.3032   -2.0419 C   0  0  0  0  0  0  0  0  0  0  0  0
   -2.0355   -0.2462   -1.5510 C   0  0  0  0  0  0  0  0  0  0  0  0
   -1.8272   -1.6056   -1.4391 C   0  0  0  0  0  0  0  0  0  0  0  0
   -0.6243   -2.1051   -0.9846 C   0  0  0  0  0  0  0  0  0  0  0  0
    0.4240   -1.2855   -0.6212 C   0  0  0  0  0  0  0  0  0  0  0  0
    1.6358   -1.7842   -0.1635 O   0  0  0  0  0  0  0  0  0  0  0  0
    1.8710   -3.1807   -0.0408 C   0  0  0  0  0  0  0  0  0  0  0  0
    3.2334   -3.4565    0.4684 C   0  0  0  0  0  0  0  0  0  0  0  0
    3.5042   -3.5607    1.8196 C   0  0  0  0  0  0  0  0  0  0  0  0
    4.8053   -3.8220    2.2374 C   0  0  0  0  0  0  0  0  0  0  0  0
    5.8416   -3.9808    1.3226 C   0  0  0  0  0  0  0  0  0  0  0  0
    5.5633   -3.8755   -0.0207 C   0  0  0  0  0  0  0  0  0  0  0  0
    4.2707   -3.6164   -0.4260 C   0  0  0  0  0  0  0  0  0  0  0  0
    0.2294    0.0753   -0.7280 C   0  0  0  0  0  0  0  0  0  0  0  0
    1.2735    0.8972   -0.3662 O   0  0  0  0  0  0  0  0  0  0  0  0
    1.2105    2.3092   -0.4261 C   0  0  0  0  0  0  0  0  0  0  0  0
    2.4601    2.9349    0.0172 C   0  0  0  0  0  0  0  0  0  0  0  0
    2.5286    4.3131    0.0161 C   0  0  0  0  0  0  0  0  0  0  0  0
    3.6481    5.0130    0.4108 C   0  0  0  0  0  0  0  0  0  0  0  0
    4.7724    4.3215    0.8336 C   0  0  0  0  0  0  0  0  0  0  0  0
    4.7128    2.9405    0.8378 C   0  0  0  0  0  0  0  0  0  0  0  0
    3.5780    2.2547    0.4373 C   0  0  0  0  0  0  0  0  0  0  0  0
   -0.9851    0.5709   -1.1867 C   0  0  0  0  0  0  0  0  0  0  0  0
  1  2  1  0
  2  3  2  0
  3  4  1  0
  4  5  1  0
  4  6  2  0
  6  7  1  0
  7  8  1  0
  7  9  2  0
  9 10  1  0
 10 11  1  0
 11 12  2  0
 12 13  1  0
 13 14  2  0
 14 15  1  0
 15 16  1  0
 16 17  1  0
 17 18  2  0
 18 19  1  0
 19 20  2  0
 20 21  1  0
 21 22  2  0
 14 23  1  0
 23 24  1  0
 24 25  1  0
 25 26  1  0
 26 27  2  0
 27 28  1  0
 28 29  2  0
 29 30  1  0
 30 31  2  0
 23 32  2  0
  9  2  1  0
 32 11  1  0
 22 17  1  0
 31 26  1  0
M  END
>  <zinc_id>  (440) 
ZINC000013472736

>  <ortholog_name>  (440) 
DRTS_PLAFK

>  <gene_name>  (440) 
DRTS_PLAFK

>  <affinity>  (440) 
7.10

>  <chembldocid>  (440) 
16871

>  <title>  (440) 
None

>  <reference.pubmed_id>  (440) 
11881993

>  <reference.doi>  (440) 
None

>  <reference.chembl_id>  (440) 
CHEMBL1135602

>  <reference.journal>  (440) 
J. Med. Chem.

>  <reference.year>  (440) 
2002

$$$$

     RDKit          3D

 32 35  0  0  0  0  0  0  0  0999 V2000
   -4.7471   -1.9248   -0.8000 C   0  0  0  0  0  0  0  0  0  0  0  0
   -4.9531   -0.5126   -0.3654 C   0  0  0  0  0  0  0  0  0  0  0  0
   -5.8406   -0.3169    0.6484 N   0  0  0  0  0  0  0  0  0  0  0  0
   -6.0767    0.9357    1.0932 C   0  0  0  0  0  0  0  0  0  0  0  0
   -6.9996    1.1754    2.1527 N   0  0  0  0  0  0  0  0  0  0  0  0
   -5.4328    1.9711    0.5296 N   0  0  0  0  0  0  0  0  0  0  0  0
   -4.5413    1.8105   -0.4834 C   0  0  0  0  0  0  0  0  0  0  0  0
   -3.8779    2.9056   -1.0597 N   0  0  0  0  0  0  0  0  0  0  0  0
   -4.2864    0.5418   -0.9515 C   0  0  0  0  0  0  0  0  0  0  0  0
   -3.3349    0.3032   -2.0419 C   0  0  0  0  0  0  0  0  0  0  0  0
   -2.0355   -0.2462   -1.5510 C   0  0  0  0  0  0  0  0  0  0  0  0
   -1.8272   -1.6056   -1.4391 C   0  0  0  0  0  0  0  0  0  0  0  0
   -0.6243   -2.1051   -0.9846 C   0  0  0  0  0  0  0  0  0  0  0  0
    0.4240   -1.2855   -0.6212 C   0  0  0  0  0  0  0  0  0  0  0  0
    1.6358   -1.7842   -0.1635 O   0  0  0  0  0  0  0  0  0  0  0  0
    1.8710   -3.1807   -0.0408 C   0  0  0  0  0  0  0  0  0  0  0  0
    3.2334   -3.4565    0.4684 C   0  0  0  0  0  0  0  0  0  0  0  0
    3.5042   -3.5607    1.8196 C   0  0  0  0  0  0  0  0  0  0  0  0
    4.8053   -3.8220    2.2374 C   0  0  0  0  0  0  0  0  0  0  0  0
    5.8416   -3.9808    1.3226 C   0  0  0  0  0  0  0  0  0  0  0  0
    5.5633   -3.8755   -0.0207 C   0  0  0  0  0  0  0  0  0  0  0  0
    4.2707   -3.6164   -0.4260 C   0  0  0  0  0  0  0  0  0  0  0  0
    0.2294    0.0753   -0.7280 C   0  0  0  0  0  0  0  0  0  0  0  0
    1.2735    0.8972   -0.3662 O   0  0  0  0  0  0  0  0  0  0  0  0
    1.2105    2.3092   -0.4261 C   0  0  0  0  0  0  0  0  0  0  0  0
    2.4601    2.9349    0.0172 C   0  0  0  0  0  0  0  0  0  0  0  0
    2.5286    4.3131    0.0161 C   0  0  0  0  0  0  0  0  0  0  0  0
    3.6481    5.0130    0.4108 C   0  0  0  0  0  0  0  0  0  0  0  0
    4.7724    4.3215    0.8336 C   0  0  0  0  0  0  0  0  0  0  0  0
    4.7128    2.9405    0.8378 C   0  0  0  0  0  0  0  0  0  0  0  0
    3.5780    2.2547    0.4373 C   0  0  0  0  0  0  0  0  0  0  0  0
   -0.9851    0.5709   -1.1867 C   0  0  0  0  0  0  0  0  0  0  0  0
  1  2  1  0
  2  3  2  0
  3  4  1  0
  4  5  1  0
  4  6  2  0
  6  7  1  0
  7  8  1  0
  7  9  2  0
  9 10  1  0
 10 11  1  0
 11 12  2  0
 12 13  1  0
 13 14  2  0
 14 15  1  0
 15 16  1  0
 16 17  1  0
 17 18  2  0
 18 19  1  0
 19 20  2  0
 20 21  1  0
 21 22  2  0
 14 23  1  0
 23 24  1  0
 24 25  1  0
 25 26  1  0
 26 27  2  0
 27 28  1  0
 28 29  2  0
 29 30  1  0
 30 31  2  0
 23 32  2  0
  9  2  1  0
 32 11  1  0
 22 17  1  0
 31 26  1  0
M  END
>  <zinc_id>  (441) 
ZINC000013472736

>  <ortholog_name>  (441) 
DRTS_PLAFK

>  <gene_name>  (441) 
DRTS_PLAFK

>  <affinity>  (441) 
7.10

>  <chembldocid>  (441) 
17636

>  <title>  (441) 
None

>  <reference.pubmed_id>  (441) 
14711307

>  <reference.doi>  (441) 
None

>  <reference.chembl_id>  (441) 
CHEMBL1148379

>  <reference.journal>  (441) 
J. Med. Chem.

>  <reference.year>  (441) 
2004

$$$$

     RDKit          3D

 33 36  0  0  0  0  0  0  0  0999 V2000
    2.3175    2.9335    1.5976 C   0  0  0  0  0  0  0  0  0  0  0  0
    1.8344    2.5091    0.2458 C   0  0  0  0  0  0  0  0  0  0  0  0
    2.8028    1.6308   -0.4457 C   0  0  0  0  0  0  0  0  0  0  0  0
    3.5711    2.0928   -1.4256 N   0  0  0  0  0  0  0  0  0  0  0  0
    4.4727    1.3046   -2.0669 C   0  0  0  0  0  0  0  0  0  0  0  0
    5.2781    1.8493   -3.1152 N   0  0  0  0  0  0  0  0  0  0  0  0
    4.5673    0.0291   -1.6786 N   0  0  0  0  0  0  0  0  0  0  0  0
    3.8115   -0.4832   -0.6929 C   0  0  0  0  0  0  0  0  0  0  0  0
    3.9181   -1.8486   -0.2841 N   0  0  0  0  0  0  0  0  0  0  0  0
    2.8972    0.2952   -0.0345 C   0  0  0  0  0  0  0  0  0  0  0  0
    2.0281   -0.1605    1.0425 C   0  0  0  0  0  0  0  0  0  0  0  0
    0.6402   -0.4275    0.6292 C   0  0  0  0  0  0  0  0  0  0  0  0
    0.3468   -1.7368    0.2413 C   0  0  0  0  0  0  0  0  0  0  0  0
   -0.9410   -2.0385   -0.1274 C   0  0  0  0  0  0  0  0  0  0  0  0
   -1.9475   -1.0964   -0.1265 C   0  0  0  0  0  0  0  0  0  0  0  0
   -3.2423   -1.4171   -0.5002 O   0  0  0  0  0  0  0  0  0  0  0  0
   -3.5356   -2.7399   -0.8913 C   0  0  0  0  0  0  0  0  0  0  0  0
   -3.2310   -3.6221    0.2936 C   0  0  0  0  0  0  0  0  0  0  0  0
   -3.1765   -4.9928    0.1224 C   0  0  0  0  0  0  0  0  0  0  0  0
   -2.9149   -5.8331    1.1706 C   0  0  0  0  0  0  0  0  0  0  0  0
   -2.6959   -5.3183    2.4434 C   0  0  0  0  0  0  0  0  0  0  0  0
   -2.7564   -3.9338    2.5879 C   0  0  0  0  0  0  0  0  0  0  0  0
   -3.0193   -3.0843    1.5373 C   0  0  0  0  0  0  0  0  0  0  0  0
   -1.6432    0.1958    0.2591 C   0  0  0  0  0  0  0  0  0  0  0  0
   -2.6877    1.1014    0.2423 O   0  0  0  0  0  0  0  0  0  0  0  0
   -2.4824    2.4476    0.5934 C   0  0  0  0  0  0  0  0  0  0  0  0
   -1.5281    3.0307   -0.3842 C   0  0  0  0  0  0  0  0  0  0  0  0
   -1.1270    2.3457   -1.5118 C   0  0  0  0  0  0  0  0  0  0  0  0
   -0.2474    2.9627   -2.3933 C   0  0  0  0  0  0  0  0  0  0  0  0
    0.2270    4.2312   -2.1659 C   0  0  0  0  0  0  0  0  0  0  0  0
   -0.1628    4.9381   -1.0378 C   0  0  0  0  0  0  0  0  0  0  0  0
   -1.0358    4.3030   -0.1798 C   0  0  0  0  0  0  0  0  0  0  0  0
   -0.3378    0.5324    0.6394 C   0  0  0  0  0  0  0  0  0  0  0  0
  1  2  1  0
  2  3  1  0
  3  4  2  0
  4  5  1  0
  5  6  1  0
  5  7  2  0
  7  8  1  0
  8  9  1  0
  8 10  2  0
 10 11  1  0
 11 12  1  0
 12 13  2  0
 13 14  1  0
 14 15  2  0
 15 16  1  0
 16 17  1  0
 17 18  1  0
 18 19  2  0
 19 20  1  0
 20 21  2  0
 21 22  1  0
 22 23  2  0
 15 24  1  0
 24 25  1  0
 25 26  1  0
 26 27  1  0
 27 28  2  0
 28 29  1  0
 29 30  2  0
 30 31  1  0
 31 32  2  0
 24 33  2  0
 10  3  1  0
 33 12  1  0
 23 18  1  0
 32 27  1  0
M  END
>  <zinc_id>  (442) 
ZINC000013472737

>  <ortholog_name>  (442) 
DRTS_PLAFK

>  <gene_name>  (442) 
DRTS_PLAFK

>  <affinity>  (442) 
7.70

>  <chembldocid>  (442) 
17636

>  <title>  (442) 
None

>  <reference.pubmed_id>  (442) 
14711307

>  <reference.doi>  (442) 
None

>  <reference.chembl_id>  (442) 
CHEMBL1148379

>  <reference.journal>  (442) 
J. Med. Chem.

>  <reference.year>  (442) 
2004

$$$$

     RDKit          3D

 33 36  0  0  0  0  0  0  0  0999 V2000
    2.3175    2.9335    1.5976 C   0  0  0  0  0  0  0  0  0  0  0  0
    1.8344    2.5091    0.2458 C   0  0  0  0  0  0  0  0  0  0  0  0
    2.8028    1.6308   -0.4457 C   0  0  0  0  0  0  0  0  0  0  0  0
    3.5711    2.0928   -1.4256 N   0  0  0  0  0  0  0  0  0  0  0  0
    4.4727    1.3046   -2.0669 C   0  0  0  0  0  0  0  0  0  0  0  0
    5.2781    1.8493   -3.1152 N   0  0  0  0  0  0  0  0  0  0  0  0
    4.5673    0.0291   -1.6786 N   0  0  0  0  0  0  0  0  0  0  0  0
    3.8115   -0.4832   -0.6929 C   0  0  0  0  0  0  0  0  0  0  0  0
    3.9181   -1.8486   -0.2841 N   0  0  0  0  0  0  0  0  0  0  0  0
    2.8972    0.2952   -0.0345 C   0  0  0  0  0  0  0  0  0  0  0  0
    2.0281   -0.1605    1.0425 C   0  0  0  0  0  0  0  0  0  0  0  0
    0.6402   -0.4275    0.6292 C   0  0  0  0  0  0  0  0  0  0  0  0
    0.3468   -1.7368    0.2413 C   0  0  0  0  0  0  0  0  0  0  0  0
   -0.9410   -2.0385   -0.1274 C   0  0  0  0  0  0  0  0  0  0  0  0
   -1.9475   -1.0964   -0.1265 C   0  0  0  0  0  0  0  0  0  0  0  0
   -3.2423   -1.4171   -0.5002 O   0  0  0  0  0  0  0  0  0  0  0  0
   -3.5356   -2.7399   -0.8913 C   0  0  0  0  0  0  0  0  0  0  0  0
   -3.2310   -3.6221    0.2936 C   0  0  0  0  0  0  0  0  0  0  0  0
   -3.1765   -4.9928    0.1224 C   0  0  0  0  0  0  0  0  0  0  0  0
   -2.9149   -5.8331    1.1706 C   0  0  0  0  0  0  0  0  0  0  0  0
   -2.6959   -5.3183    2.4434 C   0  0  0  0  0  0  0  0  0  0  0  0
   -2.7564   -3.9338    2.5879 C   0  0  0  0  0  0  0  0  0  0  0  0
   -3.0193   -3.0843    1.5373 C   0  0  0  0  0  0  0  0  0  0  0  0
   -1.6432    0.1958    0.2591 C   0  0  0  0  0  0  0  0  0  0  0  0
   -2.6877    1.1014    0.2423 O   0  0  0  0  0  0  0  0  0  0  0  0
   -2.4824    2.4476    0.5934 C   0  0  0  0  0  0  0  0  0  0  0  0
   -1.5281    3.0307   -0.3842 C   0  0  0  0  0  0  0  0  0  0  0  0
   -1.1270    2.3457   -1.5118 C   0  0  0  0  0  0  0  0  0  0  0  0
   -0.2474    2.9627   -2.3933 C   0  0  0  0  0  0  0  0  0  0  0  0
    0.2270    4.2312   -2.1659 C   0  0  0  0  0  0  0  0  0  0  0  0
   -0.1628    4.9381   -1.0378 C   0  0  0  0  0  0  0  0  0  0  0  0
   -1.0358    4.3030   -0.1798 C   0  0  0  0  0  0  0  0  0  0  0  0
   -0.3378    0.5324    0.6394 C   0  0  0  0  0  0  0  0  0  0  0  0
  1  2  1  0
  2  3  1  0
  3  4  2  0
  4  5  1  0
  5  6  1  0
  5  7  2  0
  7  8  1  0
  8  9  1  0
  8 10  2  0
 10 11  1  0
 11 12  1  0
 12 13  2  0
 13 14  1  0
 14 15  2  0
 15 16  1  0
 16 17  1  0
 17 18  1  0
 18 19  2  0
 19 20  1  0
 20 21  2  0
 21 22  1  0
 22 23  2  0
 15 24  1  0
 24 25  1  0
 25 26  1  0
 26 27  1  0
 27 28  2  0
 28 29  1  0
 29 30  2  0
 30 31  1  0
 31 32  2  0
 24 33  2  0
 10  3  1  0
 33 12  1  0
 23 18  1  0
 32 27  1  0
M  END
>  <zinc_id>  (443) 
ZINC000013472737

>  <ortholog_name>  (443) 
DRTS_PLAFK

>  <gene_name>  (443) 
DRTS_PLAFK

>  <affinity>  (443) 
6.69

>  <chembldocid>  (443) 
17636

>  <title>  (443) 
None

>  <reference.pubmed_id>  (443) 
14711307

>  <reference.doi>  (443) 
None

>  <reference.chembl_id>  (443) 
CHEMBL1148379

>  <reference.journal>  (443) 
J. Med. Chem.

>  <reference.year>  (443) 
2004

$$$$

     RDKit          3D

 33 36  0  0  0  0  0  0  0  0999 V2000
    2.3175    2.9335    1.5976 C   0  0  0  0  0  0  0  0  0  0  0  0
    1.8344    2.5091    0.2458 C   0  0  0  0  0  0  0  0  0  0  0  0
    2.8028    1.6308   -0.4457 C   0  0  0  0  0  0  0  0  0  0  0  0
    3.5711    2.0928   -1.4256 N   0  0  0  0  0  0  0  0  0  0  0  0
    4.4727    1.3046   -2.0669 C   0  0  0  0  0  0  0  0  0  0  0  0
    5.2781    1.8493   -3.1152 N   0  0  0  0  0  0  0  0  0  0  0  0
    4.5673    0.0291   -1.6786 N   0  0  0  0  0  0  0  0  0  0  0  0
    3.8115   -0.4832   -0.6929 C   0  0  0  0  0  0  0  0  0  0  0  0
    3.9181   -1.8486   -0.2841 N   0  0  0  0  0  0  0  0  0  0  0  0
    2.8972    0.2952   -0.0345 C   0  0  0  0  0  0  0  0  0  0  0  0
    2.0281   -0.1605    1.0425 C   0  0  0  0  0  0  0  0  0  0  0  0
    0.6402   -0.4275    0.6292 C   0  0  0  0  0  0  0  0  0  0  0  0
    0.3468   -1.7368    0.2413 C   0  0  0  0  0  0  0  0  0  0  0  0
   -0.9410   -2.0385   -0.1274 C   0  0  0  0  0  0  0  0  0  0  0  0
   -1.9475   -1.0964   -0.1265 C   0  0  0  0  0  0  0  0  0  0  0  0
   -3.2423   -1.4171   -0.5002 O   0  0  0  0  0  0  0  0  0  0  0  0
   -3.5356   -2.7399   -0.8913 C   0  0  0  0  0  0  0  0  0  0  0  0
   -3.2310   -3.6221    0.2936 C   0  0  0  0  0  0  0  0  0  0  0  0
   -3.1765   -4.9928    0.1224 C   0  0  0  0  0  0  0  0  0  0  0  0
   -2.9149   -5.8331    1.1706 C   0  0  0  0  0  0  0  0  0  0  0  0
   -2.6959   -5.3183    2.4434 C   0  0  0  0  0  0  0  0  0  0  0  0
   -2.7564   -3.9338    2.5879 C   0  0  0  0  0  0  0  0  0  0  0  0
   -3.0193   -3.0843    1.5373 C   0  0  0  0  0  0  0  0  0  0  0  0
   -1.6432    0.1958    0.2591 C   0  0  0  0  0  0  0  0  0  0  0  0
   -2.6877    1.1014    0.2423 O   0  0  0  0  0  0  0  0  0  0  0  0
   -2.4824    2.4476    0.5934 C   0  0  0  0  0  0  0  0  0  0  0  0
   -1.5281    3.0307   -0.3842 C   0  0  0  0  0  0  0  0  0  0  0  0
   -1.1270    2.3457   -1.5118 C   0  0  0  0  0  0  0  0  0  0  0  0
   -0.2474    2.9627   -2.3933 C   0  0  0  0  0  0  0  0  0  0  0  0
    0.2270    4.2312   -2.1659 C   0  0  0  0  0  0  0  0  0  0  0  0
   -0.1628    4.9381   -1.0378 C   0  0  0  0  0  0  0  0  0  0  0  0
   -1.0358    4.3030   -0.1798 C   0  0  0  0  0  0  0  0  0  0  0  0
   -0.3378    0.5324    0.6394 C   0  0  0  0  0  0  0  0  0  0  0  0
  1  2  1  0
  2  3  1  0
  3  4  2  0
  4  5  1  0
  5  6  1  0
  5  7  2  0
  7  8  1  0
  8  9  1  0
  8 10  2  0
 10 11  1  0
 11 12  1  0
 12 13  2  0
 13 14  1  0
 14 15  2  0
 15 16  1  0
 16 17  1  0
 17 18  1  0
 18 19  2  0
 19 20  1  0
 20 21  2  0
 21 22  1  0
 22 23  2  0
 15 24  1  0
 24 25  1  0
 25 26  1  0
 26 27  1  0
 27 28  2  0
 28 29  1  0
 29 30  2  0
 30 31  1  0
 31 32  2  0
 24 33  2  0
 10  3  1  0
 33 12  1  0
 23 18  1  0
 32 27  1  0
M  END
>  <zinc_id>  (444) 
ZINC000013472737

>  <ortholog_name>  (444) 
DRTS_PLAFK

>  <gene_name>  (444) 
DRTS_PLAFK

>  <affinity>  (444) 
6.56

>  <chembldocid>  (444) 
17636

>  <title>  (444) 
None

>  <reference.pubmed_id>  (444) 
14711307

>  <reference.doi>  (444) 
None

>  <reference.chembl_id>  (444) 
CHEMBL1148379

>  <reference.journal>  (444) 
J. Med. Chem.

>  <reference.year>  (444) 
2004

$$$$

     RDKit          3D

 33 36  0  0  0  0  0  0  0  0999 V2000
    2.3175    2.9335    1.5976 C   0  0  0  0  0  0  0  0  0  0  0  0
    1.8344    2.5091    0.2458 C   0  0  0  0  0  0  0  0  0  0  0  0
    2.8028    1.6308   -0.4457 C   0  0  0  0  0  0  0  0  0  0  0  0
    3.5711    2.0928   -1.4256 N   0  0  0  0  0  0  0  0  0  0  0  0
    4.4727    1.3046   -2.0669 C   0  0  0  0  0  0  0  0  0  0  0  0
    5.2781    1.8493   -3.1152 N   0  0  0  0  0  0  0  0  0  0  0  0
    4.5673    0.0291   -1.6786 N   0  0  0  0  0  0  0  0  0  0  0  0
    3.8115   -0.4832   -0.6929 C   0  0  0  0  0  0  0  0  0  0  0  0
    3.9181   -1.8486   -0.2841 N   0  0  0  0  0  0  0  0  0  0  0  0
    2.8972    0.2952   -0.0345 C   0  0  0  0  0  0  0  0  0  0  0  0
    2.0281   -0.1605    1.0425 C   0  0  0  0  0  0  0  0  0  0  0  0
    0.6402   -0.4275    0.6292 C   0  0  0  0  0  0  0  0  0  0  0  0
    0.3468   -1.7368    0.2413 C   0  0  0  0  0  0  0  0  0  0  0  0
   -0.9410   -2.0385   -0.1274 C   0  0  0  0  0  0  0  0  0  0  0  0
   -1.9475   -1.0964   -0.1265 C   0  0  0  0  0  0  0  0  0  0  0  0
   -3.2423   -1.4171   -0.5002 O   0  0  0  0  0  0  0  0  0  0  0  0
   -3.5356   -2.7399   -0.8913 C   0  0  0  0  0  0  0  0  0  0  0  0
   -3.2310   -3.6221    0.2936 C   0  0  0  0  0  0  0  0  0  0  0  0
   -3.1765   -4.9928    0.1224 C   0  0  0  0  0  0  0  0  0  0  0  0
   -2.9149   -5.8331    1.1706 C   0  0  0  0  0  0  0  0  0  0  0  0
   -2.6959   -5.3183    2.4434 C   0  0  0  0  0  0  0  0  0  0  0  0
   -2.7564   -3.9338    2.5879 C   0  0  0  0  0  0  0  0  0  0  0  0
   -3.0193   -3.0843    1.5373 C   0  0  0  0  0  0  0  0  0  0  0  0
   -1.6432    0.1958    0.2591 C   0  0  0  0  0  0  0  0  0  0  0  0
   -2.6877    1.1014    0.2423 O   0  0  0  0  0  0  0  0  0  0  0  0
   -2.4824    2.4476    0.5934 C   0  0  0  0  0  0  0  0  0  0  0  0
   -1.5281    3.0307   -0.3842 C   0  0  0  0  0  0  0  0  0  0  0  0
   -1.1270    2.3457   -1.5118 C   0  0  0  0  0  0  0  0  0  0  0  0
   -0.2474    2.9627   -2.3933 C   0  0  0  0  0  0  0  0  0  0  0  0
    0.2270    4.2312   -2.1659 C   0  0  0  0  0  0  0  0  0  0  0  0
   -0.1628    4.9381   -1.0378 C   0  0  0  0  0  0  0  0  0  0  0  0
   -1.0358    4.3030   -0.1798 C   0  0  0  0  0  0  0  0  0  0  0  0
   -0.3378    0.5324    0.6394 C   0  0  0  0  0  0  0  0  0  0  0  0
  1  2  1  0
  2  3  1  0
  3  4  2  0
  4  5  1  0
  5  6  1  0
  5  7  2  0
  7  8  1  0
  8  9  1  0
  8 10  2  0
 10 11  1  0
 11 12  1  0
 12 13  2  0
 13 14  1  0
 14 15  2  0
 15 16  1  0
 16 17  1  0
 17 18  1  0
 18 19  2  0
 19 20  1  0
 20 21  2  0
 21 22  1  0
 22 23  2  0
 15 24  1  0
 24 25  1  0
 25 26  1  0
 26 27  1  0
 27 28  2  0
 28 29  1  0
 29 30  2  0
 30 31  1  0
 31 32  2  0
 24 33  2  0
 10  3  1  0
 33 12  1  0
 23 18  1  0
 32 27  1  0
M  END
>  <zinc_id>  (445) 
ZINC000013472737

>  <ortholog_name>  (445) 
DRTS_PLAFK

>  <gene_name>  (445) 
DRTS_PLAFK

>  <affinity>  (445) 
8.43

>  <chembldocid>  (445) 
16871

>  <title>  (445) 
None

>  <reference.pubmed_id>  (445) 
11881993

>  <reference.doi>  (445) 
None

>  <reference.chembl_id>  (445) 
CHEMBL1135602

>  <reference.journal>  (445) 
J. Med. Chem.

>  <reference.year>  (445) 
2002

$$$$

     RDKit          3D

 33 36  0  0  0  0  0  0  0  0999 V2000
    2.3175    2.9335    1.5976 C   0  0  0  0  0  0  0  0  0  0  0  0
    1.8344    2.5091    0.2458 C   0  0  0  0  0  0  0  0  0  0  0  0
    2.8028    1.6308   -0.4457 C   0  0  0  0  0  0  0  0  0  0  0  0
    3.5711    2.0928   -1.4256 N   0  0  0  0  0  0  0  0  0  0  0  0
    4.4727    1.3046   -2.0669 C   0  0  0  0  0  0  0  0  0  0  0  0
    5.2781    1.8493   -3.1152 N   0  0  0  0  0  0  0  0  0  0  0  0
    4.5673    0.0291   -1.6786 N   0  0  0  0  0  0  0  0  0  0  0  0
    3.8115   -0.4832   -0.6929 C   0  0  0  0  0  0  0  0  0  0  0  0
    3.9181   -1.8486   -0.2841 N   0  0  0  0  0  0  0  0  0  0  0  0
    2.8972    0.2952   -0.0345 C   0  0  0  0  0  0  0  0  0  0  0  0
    2.0281   -0.1605    1.0425 C   0  0  0  0  0  0  0  0  0  0  0  0
    0.6402   -0.4275    0.6292 C   0  0  0  0  0  0  0  0  0  0  0  0
    0.3468   -1.7368    0.2413 C   0  0  0  0  0  0  0  0  0  0  0  0
   -0.9410   -2.0385   -0.1274 C   0  0  0  0  0  0  0  0  0  0  0  0
   -1.9475   -1.0964   -0.1265 C   0  0  0  0  0  0  0  0  0  0  0  0
   -3.2423   -1.4171   -0.5002 O   0  0  0  0  0  0  0  0  0  0  0  0
   -3.5356   -2.7399   -0.8913 C   0  0  0  0  0  0  0  0  0  0  0  0
   -3.2310   -3.6221    0.2936 C   0  0  0  0  0  0  0  0  0  0  0  0
   -3.1765   -4.9928    0.1224 C   0  0  0  0  0  0  0  0  0  0  0  0
   -2.9149   -5.8331    1.1706 C   0  0  0  0  0  0  0  0  0  0  0  0
   -2.6959   -5.3183    2.4434 C   0  0  0  0  0  0  0  0  0  0  0  0
   -2.7564   -3.9338    2.5879 C   0  0  0  0  0  0  0  0  0  0  0  0
   -3.0193   -3.0843    1.5373 C   0  0  0  0  0  0  0  0  0  0  0  0
   -1.6432    0.1958    0.2591 C   0  0  0  0  0  0  0  0  0  0  0  0
   -2.6877    1.1014    0.2423 O   0  0  0  0  0  0  0  0  0  0  0  0
   -2.4824    2.4476    0.5934 C   0  0  0  0  0  0  0  0  0  0  0  0
   -1.5281    3.0307   -0.3842 C   0  0  0  0  0  0  0  0  0  0  0  0
   -1.1270    2.3457   -1.5118 C   0  0  0  0  0  0  0  0  0  0  0  0
   -0.2474    2.9627   -2.3933 C   0  0  0  0  0  0  0  0  0  0  0  0
    0.2270    4.2312   -2.1659 C   0  0  0  0  0  0  0  0  0  0  0  0
   -0.1628    4.9381   -1.0378 C   0  0  0  0  0  0  0  0  0  0  0  0
   -1.0358    4.3030   -0.1798 C   0  0  0  0  0  0  0  0  0  0  0  0
   -0.3378    0.5324    0.6394 C   0  0  0  0  0  0  0  0  0  0  0  0
  1  2  1  0
  2  3  1  0
  3  4  2  0
  4  5  1  0
  5  6  1  0
  5  7  2  0
  7  8  1  0
  8  9  1  0
  8 10  2  0
 10 11  1  0
 11 12  1  0
 12 13  2  0
 13 14  1  0
 14 15  2  0
 15 16  1  0
 16 17  1  0
 17 18  1  0
 18 19  2  0
 19 20  1  0
 20 21  2  0
 21 22  1  0
 22 23  2  0
 15 24  1  0
 24 25  1  0
 25 26  1  0
 26 27  1  0
 27 28  2  0
 28 29  1  0
 29 30  2  0
 30 31  1  0
 31 32  2  0
 24 33  2  0
 10  3  1  0
 33 12  1  0
 23 18  1  0
 32 27  1  0
M  END
>  <zinc_id>  (446) 
ZINC000013472737

>  <ortholog_name>  (446) 
DRTS_PLAFK

>  <gene_name>  (446) 
DRTS_PLAFK

>  <affinity>  (446) 
8.43

>  <chembldocid>  (446) 
17636

>  <title>  (446) 
None

>  <reference.pubmed_id>  (446) 
14711307

>  <reference.doi>  (446) 
None

>  <reference.chembl_id>  (446) 
CHEMBL1148379

>  <reference.journal>  (446) 
J. Med. Chem.

>  <reference.year>  (446) 
2004

$$$$

     RDKit          3D

 33 36  0  0  0  0  0  0  0  0999 V2000
    2.3175    2.9335    1.5976 C   0  0  0  0  0  0  0  0  0  0  0  0
    1.8344    2.5091    0.2458 C   0  0  0  0  0  0  0  0  0  0  0  0
    2.8028    1.6308   -0.4457 C   0  0  0  0  0  0  0  0  0  0  0  0
    3.5711    2.0928   -1.4256 N   0  0  0  0  0  0  0  0  0  0  0  0
    4.4727    1.3046   -2.0669 C   0  0  0  0  0  0  0  0  0  0  0  0
    5.2781    1.8493   -3.1152 N   0  0  0  0  0  0  0  0  0  0  0  0
    4.5673    0.0291   -1.6786 N   0  0  0  0  0  0  0  0  0  0  0  0
    3.8115   -0.4832   -0.6929 C   0  0  0  0  0  0  0  0  0  0  0  0
    3.9181   -1.8486   -0.2841 N   0  0  0  0  0  0  0  0  0  0  0  0
    2.8972    0.2952   -0.0345 C   0  0  0  0  0  0  0  0  0  0  0  0
    2.0281   -0.1605    1.0425 C   0  0  0  0  0  0  0  0  0  0  0  0
    0.6402   -0.4275    0.6292 C   0  0  0  0  0  0  0  0  0  0  0  0
    0.3468   -1.7368    0.2413 C   0  0  0  0  0  0  0  0  0  0  0  0
   -0.9410   -2.0385   -0.1274 C   0  0  0  0  0  0  0  0  0  0  0  0
   -1.9475   -1.0964   -0.1265 C   0  0  0  0  0  0  0  0  0  0  0  0
   -3.2423   -1.4171   -0.5002 O   0  0  0  0  0  0  0  0  0  0  0  0
   -3.5356   -2.7399   -0.8913 C   0  0  0  0  0  0  0  0  0  0  0  0
   -3.2310   -3.6221    0.2936 C   0  0  0  0  0  0  0  0  0  0  0  0
   -3.1765   -4.9928    0.1224 C   0  0  0  0  0  0  0  0  0  0  0  0
   -2.9149   -5.8331    1.1706 C   0  0  0  0  0  0  0  0  0  0  0  0
   -2.6959   -5.3183    2.4434 C   0  0  0  0  0  0  0  0  0  0  0  0
   -2.7564   -3.9338    2.5879 C   0  0  0  0  0  0  0  0  0  0  0  0
   -3.0193   -3.0843    1.5373 C   0  0  0  0  0  0  0  0  0  0  0  0
   -1.6432    0.1958    0.2591 C   0  0  0  0  0  0  0  0  0  0  0  0
   -2.6877    1.1014    0.2423 O   0  0  0  0  0  0  0  0  0  0  0  0
   -2.4824    2.4476    0.5934 C   0  0  0  0  0  0  0  0  0  0  0  0
   -1.5281    3.0307   -0.3842 C   0  0  0  0  0  0  0  0  0  0  0  0
   -1.1270    2.3457   -1.5118 C   0  0  0  0  0  0  0  0  0  0  0  0
   -0.2474    2.9627   -2.3933 C   0  0  0  0  0  0  0  0  0  0  0  0
    0.2270    4.2312   -2.1659 C   0  0  0  0  0  0  0  0  0  0  0  0
   -0.1628    4.9381   -1.0378 C   0  0  0  0  0  0  0  0  0  0  0  0
   -1.0358    4.3030   -0.1798 C   0  0  0  0  0  0  0  0  0  0  0  0
   -0.3378    0.5324    0.6394 C   0  0  0  0  0  0  0  0  0  0  0  0
  1  2  1  0
  2  3  1  0
  3  4  2  0
  4  5  1  0
  5  6  1  0
  5  7  2  0
  7  8  1  0
  8  9  1  0
  8 10  2  0
 10 11  1  0
 11 12  1  0
 12 13  2  0
 13 14  1  0
 14 15  2  0
 15 16  1  0
 16 17  1  0
 17 18  1  0
 18 19  2  0
 19 20  1  0
 20 21  2  0
 21 22  1  0
 22 23  2  0
 15 24  1  0
 24 25  1  0
 25 26  1  0
 26 27  1  0
 27 28  2  0
 28 29  1  0
 29 30  2  0
 30 31  1  0
 31 32  2  0
 24 33  2  0
 10  3  1  0
 33 12  1  0
 23 18  1  0
 32 27  1  0
M  END
>  <zinc_id>  (447) 
ZINC000013472737

>  <ortholog_name>  (447) 
DRTS_PLAFK

>  <gene_name>  (447) 
DRTS_PLAFK

>  <affinity>  (447) 
7.52

>  <chembldocid>  (447) 
17636

>  <title>  (447) 
None

>  <reference.pubmed_id>  (447) 
14711307

>  <reference.doi>  (447) 
None

>  <reference.chembl_id>  (447) 
CHEMBL1148379

>  <reference.journal>  (447) 
J. Med. Chem.

>  <reference.year>  (447) 
2004

$$$$

     RDKit          3D

 33 36  0  0  0  0  0  0  0  0999 V2000
    2.3175    2.9335    1.5976 C   0  0  0  0  0  0  0  0  0  0  0  0
    1.8344    2.5091    0.2458 C   0  0  0  0  0  0  0  0  0  0  0  0
    2.8028    1.6308   -0.4457 C   0  0  0  0  0  0  0  0  0  0  0  0
    3.5711    2.0928   -1.4256 N   0  0  0  0  0  0  0  0  0  0  0  0
    4.4727    1.3046   -2.0669 C   0  0  0  0  0  0  0  0  0  0  0  0
    5.2781    1.8493   -3.1152 N   0  0  0  0  0  0  0  0  0  0  0  0
    4.5673    0.0291   -1.6786 N   0  0  0  0  0  0  0  0  0  0  0  0
    3.8115   -0.4832   -0.6929 C   0  0  0  0  0  0  0  0  0  0  0  0
    3.9181   -1.8486   -0.2841 N   0  0  0  0  0  0  0  0  0  0  0  0
    2.8972    0.2952   -0.0345 C   0  0  0  0  0  0  0  0  0  0  0  0
    2.0281   -0.1605    1.0425 C   0  0  0  0  0  0  0  0  0  0  0  0
    0.6402   -0.4275    0.6292 C   0  0  0  0  0  0  0  0  0  0  0  0
    0.3468   -1.7368    0.2413 C   0  0  0  0  0  0  0  0  0  0  0  0
   -0.9410   -2.0385   -0.1274 C   0  0  0  0  0  0  0  0  0  0  0  0
   -1.9475   -1.0964   -0.1265 C   0  0  0  0  0  0  0  0  0  0  0  0
   -3.2423   -1.4171   -0.5002 O   0  0  0  0  0  0  0  0  0  0  0  0
   -3.5356   -2.7399   -0.8913 C   0  0  0  0  0  0  0  0  0  0  0  0
   -3.2310   -3.6221    0.2936 C   0  0  0  0  0  0  0  0  0  0  0  0
   -3.1765   -4.9928    0.1224 C   0  0  0  0  0  0  0  0  0  0  0  0
   -2.9149   -5.8331    1.1706 C   0  0  0  0  0  0  0  0  0  0  0  0
   -2.6959   -5.3183    2.4434 C   0  0  0  0  0  0  0  0  0  0  0  0
   -2.7564   -3.9338    2.5879 C   0  0  0  0  0  0  0  0  0  0  0  0
   -3.0193   -3.0843    1.5373 C   0  0  0  0  0  0  0  0  0  0  0  0
   -1.6432    0.1958    0.2591 C   0  0  0  0  0  0  0  0  0  0  0  0
   -2.6877    1.1014    0.2423 O   0  0  0  0  0  0  0  0  0  0  0  0
   -2.4824    2.4476    0.5934 C   0  0  0  0  0  0  0  0  0  0  0  0
   -1.5281    3.0307   -0.3842 C   0  0  0  0  0  0  0  0  0  0  0  0
   -1.1270    2.3457   -1.5118 C   0  0  0  0  0  0  0  0  0  0  0  0
   -0.2474    2.9627   -2.3933 C   0  0  0  0  0  0  0  0  0  0  0  0
    0.2270    4.2312   -2.1659 C   0  0  0  0  0  0  0  0  0  0  0  0
   -0.1628    4.9381   -1.0378 C   0  0  0  0  0  0  0  0  0  0  0  0
   -1.0358    4.3030   -0.1798 C   0  0  0  0  0  0  0  0  0  0  0  0
   -0.3378    0.5324    0.6394 C   0  0  0  0  0  0  0  0  0  0  0  0
  1  2  1  0
  2  3  1  0
  3  4  2  0
  4  5  1  0
  5  6  1  0
  5  7  2  0
  7  8  1  0
  8  9  1  0
  8 10  2  0
 10 11  1  0
 11 12  1  0
 12 13  2  0
 13 14  1  0
 14 15  2  0
 15 16  1  0
 16 17  1  0
 17 18  1  0
 18 19  2  0
 19 20  1  0
 20 21  2  0
 21 22  1  0
 22 23  2  0
 15 24  1  0
 24 25  1  0
 25 26  1  0
 26 27  1  0
 27 28  2  0
 28 29  1  0
 29 30  2  0
 30 31  1  0
 31 32  2  0
 24 33  2  0
 10  3  1  0
 33 12  1  0
 23 18  1  0
 32 27  1  0
M  END
>  <zinc_id>  (448) 
ZINC000013472737

>  <ortholog_name>  (448) 
DRTS_PLAFK

>  <gene_name>  (448) 
DRTS_PLAFK

>  <affinity>  (448) 
5.52

>  <chembldocid>  (448) 
17636

>  <title>  (448) 
None

>  <reference.pubmed_id>  (448) 
14711307

>  <reference.doi>  (448) 
None

>  <reference.chembl_id>  (448) 
CHEMBL1148379

>  <reference.journal>  (448) 
J. Med. Chem.

>  <reference.year>  (448) 
2004

$$$$

     RDKit          3D

 33 36  0  0  0  0  0  0  0  0999 V2000
    2.3175    2.9335    1.5976 C   0  0  0  0  0  0  0  0  0  0  0  0
    1.8344    2.5091    0.2458 C   0  0  0  0  0  0  0  0  0  0  0  0
    2.8028    1.6308   -0.4457 C   0  0  0  0  0  0  0  0  0  0  0  0
    3.5711    2.0928   -1.4256 N   0  0  0  0  0  0  0  0  0  0  0  0
    4.4727    1.3046   -2.0669 C   0  0  0  0  0  0  0  0  0  0  0  0
    5.2781    1.8493   -3.1152 N   0  0  0  0  0  0  0  0  0  0  0  0
    4.5673    0.0291   -1.6786 N   0  0  0  0  0  0  0  0  0  0  0  0
    3.8115   -0.4832   -0.6929 C   0  0  0  0  0  0  0  0  0  0  0  0
    3.9181   -1.8486   -0.2841 N   0  0  0  0  0  0  0  0  0  0  0  0
    2.8972    0.2952   -0.0345 C   0  0  0  0  0  0  0  0  0  0  0  0
    2.0281   -0.1605    1.0425 C   0  0  0  0  0  0  0  0  0  0  0  0
    0.6402   -0.4275    0.6292 C   0  0  0  0  0  0  0  0  0  0  0  0
    0.3468   -1.7368    0.2413 C   0  0  0  0  0  0  0  0  0  0  0  0
   -0.9410   -2.0385   -0.1274 C   0  0  0  0  0  0  0  0  0  0  0  0
   -1.9475   -1.0964   -0.1265 C   0  0  0  0  0  0  0  0  0  0  0  0
   -3.2423   -1.4171   -0.5002 O   0  0  0  0  0  0  0  0  0  0  0  0
   -3.5356   -2.7399   -0.8913 C   0  0  0  0  0  0  0  0  0  0  0  0
   -3.2310   -3.6221    0.2936 C   0  0  0  0  0  0  0  0  0  0  0  0
   -3.1765   -4.9928    0.1224 C   0  0  0  0  0  0  0  0  0  0  0  0
   -2.9149   -5.8331    1.1706 C   0  0  0  0  0  0  0  0  0  0  0  0
   -2.6959   -5.3183    2.4434 C   0  0  0  0  0  0  0  0  0  0  0  0
   -2.7564   -3.9338    2.5879 C   0  0  0  0  0  0  0  0  0  0  0  0
   -3.0193   -3.0843    1.5373 C   0  0  0  0  0  0  0  0  0  0  0  0
   -1.6432    0.1958    0.2591 C   0  0  0  0  0  0  0  0  0  0  0  0
   -2.6877    1.1014    0.2423 O   0  0  0  0  0  0  0  0  0  0  0  0
   -2.4824    2.4476    0.5934 C   0  0  0  0  0  0  0  0  0  0  0  0
   -1.5281    3.0307   -0.3842 C   0  0  0  0  0  0  0  0  0  0  0  0
   -1.1270    2.3457   -1.5118 C   0  0  0  0  0  0  0  0  0  0  0  0
   -0.2474    2.9627   -2.3933 C   0  0  0  0  0  0  0  0  0  0  0  0
    0.2270    4.2312   -2.1659 C   0  0  0  0  0  0  0  0  0  0  0  0
   -0.1628    4.9381   -1.0378 C   0  0  0  0  0  0  0  0  0  0  0  0
   -1.0358    4.3030   -0.1798 C   0  0  0  0  0  0  0  0  0  0  0  0
   -0.3378    0.5324    0.6394 C   0  0  0  0  0  0  0  0  0  0  0  0
  1  2  1  0
  2  3  1  0
  3  4  2  0
  4  5  1  0
  5  6  1  0
  5  7  2  0
  7  8  1  0
  8  9  1  0
  8 10  2  0
 10 11  1  0
 11 12  1  0
 12 13  2  0
 13 14  1  0
 14 15  2  0
 15 16  1  0
 16 17  1  0
 17 18  1  0
 18 19  2  0
 19 20  1  0
 20 21  2  0
 21 22  1  0
 22 23  2  0
 15 24  1  0
 24 25  1  0
 25 26  1  0
 26 27  1  0
 27 28  2  0
 28 29  1  0
 29 30  2  0
 30 31  1  0
 31 32  2  0
 24 33  2  0
 10  3  1  0
 33 12  1  0
 23 18  1  0
 32 27  1  0
M  END
>  <zinc_id>  (449) 
ZINC000013472737

>  <ortholog_name>  (449) 
DRTS_PLAFK

>  <gene_name>  (449) 
DRTS_PLAFK

>  <affinity>  (449) 
5.46

>  <chembldocid>  (449) 
17636

>  <title>  (449) 
None

>  <reference.pubmed_id>  (449) 
14711307

>  <reference.doi>  (449) 
None

>  <reference.chembl_id>  (449) 
CHEMBL1148379

>  <reference.journal>  (449) 
J. Med. Chem.

>  <reference.year>  (449) 
2004

$$$$

     RDKit          3D

 33 36  0  0  0  0  0  0  0  0999 V2000
    2.3175    2.9335    1.5976 C   0  0  0  0  0  0  0  0  0  0  0  0
    1.8344    2.5091    0.2458 C   0  0  0  0  0  0  0  0  0  0  0  0
    2.8028    1.6308   -0.4457 C   0  0  0  0  0  0  0  0  0  0  0  0
    3.5711    2.0928   -1.4256 N   0  0  0  0  0  0  0  0  0  0  0  0
    4.4727    1.3046   -2.0669 C   0  0  0  0  0  0  0  0  0  0  0  0
    5.2781    1.8493   -3.1152 N   0  0  0  0  0  0  0  0  0  0  0  0
    4.5673    0.0291   -1.6786 N   0  0  0  0  0  0  0  0  0  0  0  0
    3.8115   -0.4832   -0.6929 C   0  0  0  0  0  0  0  0  0  0  0  0
    3.9181   -1.8486   -0.2841 N   0  0  0  0  0  0  0  0  0  0  0  0
    2.8972    0.2952   -0.0345 C   0  0  0  0  0  0  0  0  0  0  0  0
    2.0281   -0.1605    1.0425 C   0  0  0  0  0  0  0  0  0  0  0  0
    0.6402   -0.4275    0.6292 C   0  0  0  0  0  0  0  0  0  0  0  0
    0.3468   -1.7368    0.2413 C   0  0  0  0  0  0  0  0  0  0  0  0
   -0.9410   -2.0385   -0.1274 C   0  0  0  0  0  0  0  0  0  0  0  0
   -1.9475   -1.0964   -0.1265 C   0  0  0  0  0  0  0  0  0  0  0  0
   -3.2423   -1.4171   -0.5002 O   0  0  0  0  0  0  0  0  0  0  0  0
   -3.5356   -2.7399   -0.8913 C   0  0  0  0  0  0  0  0  0  0  0  0
   -3.2310   -3.6221    0.2936 C   0  0  0  0  0  0  0  0  0  0  0  0
   -3.1765   -4.9928    0.1224 C   0  0  0  0  0  0  0  0  0  0  0  0
   -2.9149   -5.8331    1.1706 C   0  0  0  0  0  0  0  0  0  0  0  0
   -2.6959   -5.3183    2.4434 C   0  0  0  0  0  0  0  0  0  0  0  0
   -2.7564   -3.9338    2.5879 C   0  0  0  0  0  0  0  0  0  0  0  0
   -3.0193   -3.0843    1.5373 C   0  0  0  0  0  0  0  0  0  0  0  0
   -1.6432    0.1958    0.2591 C   0  0  0  0  0  0  0  0  0  0  0  0
   -2.6877    1.1014    0.2423 O   0  0  0  0  0  0  0  0  0  0  0  0
   -2.4824    2.4476    0.5934 C   0  0  0  0  0  0  0  0  0  0  0  0
   -1.5281    3.0307   -0.3842 C   0  0  0  0  0  0  0  0  0  0  0  0
   -1.1270    2.3457   -1.5118 C   0  0  0  0  0  0  0  0  0  0  0  0
   -0.2474    2.9627   -2.3933 C   0  0  0  0  0  0  0  0  0  0  0  0
    0.2270    4.2312   -2.1659 C   0  0  0  0  0  0  0  0  0  0  0  0
   -0.1628    4.9381   -1.0378 C   0  0  0  0  0  0  0  0  0  0  0  0
   -1.0358    4.3030   -0.1798 C   0  0  0  0  0  0  0  0  0  0  0  0
   -0.3378    0.5324    0.6394 C   0  0  0  0  0  0  0  0  0  0  0  0
  1  2  1  0
  2  3  1  0
  3  4  2  0
  4  5  1  0
  5  6  1  0
  5  7  2  0
  7  8  1  0
  8  9  1  0
  8 10  2  0
 10 11  1  0
 11 12  1  0
 12 13  2  0
 13 14  1  0
 14 15  2  0
 15 16  1  0
 16 17  1  0
 17 18  1  0
 18 19  2  0
 19 20  1  0
 20 21  2  0
 21 22  1  0
 22 23  2  0
 15 24  1  0
 24 25  1  0
 25 26  1  0
 26 27  1  0
 27 28  2  0
 28 29  1  0
 29 30  2  0
 30 31  1  0
 31 32  2  0
 24 33  2  0
 10  3  1  0
 33 12  1  0
 23 18  1  0
 32 27  1  0
M  END
>  <zinc_id>  (450) 
ZINC000013472737

>  <ortholog_name>  (450) 
DRTS_PLAFK

>  <gene_name>  (450) 
DRTS_PLAFK

>  <affinity>  (450) 
5.45

>  <chembldocid>  (450) 
17636

>  <title>  (450) 
None

>  <reference.pubmed_id>  (450) 
14711307

>  <reference.doi>  (450) 
None

>  <reference.chembl_id>  (450) 
CHEMBL1148379

>  <reference.journal>  (450) 
J. Med. Chem.

>  <reference.year>  (450) 
2004

$$$$

     RDKit          3D

 33 36  0  0  0  0  0  0  0  0999 V2000
    2.3175    2.9335    1.5976 C   0  0  0  0  0  0  0  0  0  0  0  0
    1.8344    2.5091    0.2458 C   0  0  0  0  0  0  0  0  0  0  0  0
    2.8028    1.6308   -0.4457 C   0  0  0  0  0  0  0  0  0  0  0  0
    3.5711    2.0928   -1.4256 N   0  0  0  0  0  0  0  0  0  0  0  0
    4.4727    1.3046   -2.0669 C   0  0  0  0  0  0  0  0  0  0  0  0
    5.2781    1.8493   -3.1152 N   0  0  0  0  0  0  0  0  0  0  0  0
    4.5673    0.0291   -1.6786 N   0  0  0  0  0  0  0  0  0  0  0  0
    3.8115   -0.4832   -0.6929 C   0  0  0  0  0  0  0  0  0  0  0  0
    3.9181   -1.8486   -0.2841 N   0  0  0  0  0  0  0  0  0  0  0  0
    2.8972    0.2952   -0.0345 C   0  0  0  0  0  0  0  0  0  0  0  0
    2.0281   -0.1605    1.0425 C   0  0  0  0  0  0  0  0  0  0  0  0
    0.6402   -0.4275    0.6292 C   0  0  0  0  0  0  0  0  0  0  0  0
    0.3468   -1.7368    0.2413 C   0  0  0  0  0  0  0  0  0  0  0  0
   -0.9410   -2.0385   -0.1274 C   0  0  0  0  0  0  0  0  0  0  0  0
   -1.9475   -1.0964   -0.1265 C   0  0  0  0  0  0  0  0  0  0  0  0
   -3.2423   -1.4171   -0.5002 O   0  0  0  0  0  0  0  0  0  0  0  0
   -3.5356   -2.7399   -0.8913 C   0  0  0  0  0  0  0  0  0  0  0  0
   -3.2310   -3.6221    0.2936 C   0  0  0  0  0  0  0  0  0  0  0  0
   -3.1765   -4.9928    0.1224 C   0  0  0  0  0  0  0  0  0  0  0  0
   -2.9149   -5.8331    1.1706 C   0  0  0  0  0  0  0  0  0  0  0  0
   -2.6959   -5.3183    2.4434 C   0  0  0  0  0  0  0  0  0  0  0  0
   -2.7564   -3.9338    2.5879 C   0  0  0  0  0  0  0  0  0  0  0  0
   -3.0193   -3.0843    1.5373 C   0  0  0  0  0  0  0  0  0  0  0  0
   -1.6432    0.1958    0.2591 C   0  0  0  0  0  0  0  0  0  0  0  0
   -2.6877    1.1014    0.2423 O   0  0  0  0  0  0  0  0  0  0  0  0
   -2.4824    2.4476    0.5934 C   0  0  0  0  0  0  0  0  0  0  0  0
   -1.5281    3.0307   -0.3842 C   0  0  0  0  0  0  0  0  0  0  0  0
   -1.1270    2.3457   -1.5118 C   0  0  0  0  0  0  0  0  0  0  0  0
   -0.2474    2.9627   -2.3933 C   0  0  0  0  0  0  0  0  0  0  0  0
    0.2270    4.2312   -2.1659 C   0  0  0  0  0  0  0  0  0  0  0  0
   -0.1628    4.9381   -1.0378 C   0  0  0  0  0  0  0  0  0  0  0  0
   -1.0358    4.3030   -0.1798 C   0  0  0  0  0  0  0  0  0  0  0  0
   -0.3378    0.5324    0.6394 C   0  0  0  0  0  0  0  0  0  0  0  0
  1  2  1  0
  2  3  1  0
  3  4  2  0
  4  5  1  0
  5  6  1  0
  5  7  2  0
  7  8  1  0
  8  9  1  0
  8 10  2  0
 10 11  1  0
 11 12  1  0
 12 13  2  0
 13 14  1  0
 14 15  2  0
 15 16  1  0
 16 17  1  0
 17 18  1  0
 18 19  2  0
 19 20  1  0
 20 21  2  0
 21 22  1  0
 22 23  2  0
 15 24  1  0
 24 25  1  0
 25 26  1  0
 26 27  1  0
 27 28  2  0
 28 29  1  0
 29 30  2  0
 30 31  1  0
 31 32  2  0
 24 33  2  0
 10  3  1  0
 33 12  1  0
 23 18  1  0
 32 27  1  0
M  END
>  <zinc_id>  (451) 
ZINC000013472737

>  <ortholog_name>  (451) 
DRTS_PLAFK

>  <gene_name>  (451) 
DRTS_PLAFK

>  <affinity>  (451) 
5.38

>  <chembldocid>  (451) 
17636

>  <title>  (451) 
None

>  <reference.pubmed_id>  (451) 
14711307

>  <reference.doi>  (451) 
None

>  <reference.chembl_id>  (451) 
CHEMBL1148379

>  <reference.journal>  (451) 
J. Med. Chem.

>  <reference.year>  (451) 
2004

$$$$

     RDKit          3D

 33 36  0  0  0  0  0  0  0  0999 V2000
    2.3175    2.9335    1.5976 C   0  0  0  0  0  0  0  0  0  0  0  0
    1.8344    2.5091    0.2458 C   0  0  0  0  0  0  0  0  0  0  0  0
    2.8028    1.6308   -0.4457 C   0  0  0  0  0  0  0  0  0  0  0  0
    3.5711    2.0928   -1.4256 N   0  0  0  0  0  0  0  0  0  0  0  0
    4.4727    1.3046   -2.0669 C   0  0  0  0  0  0  0  0  0  0  0  0
    5.2781    1.8493   -3.1152 N   0  0  0  0  0  0  0  0  0  0  0  0
    4.5673    0.0291   -1.6786 N   0  0  0  0  0  0  0  0  0  0  0  0
    3.8115   -0.4832   -0.6929 C   0  0  0  0  0  0  0  0  0  0  0  0
    3.9181   -1.8486   -0.2841 N   0  0  0  0  0  0  0  0  0  0  0  0
    2.8972    0.2952   -0.0345 C   0  0  0  0  0  0  0  0  0  0  0  0
    2.0281   -0.1605    1.0425 C   0  0  0  0  0  0  0  0  0  0  0  0
    0.6402   -0.4275    0.6292 C   0  0  0  0  0  0  0  0  0  0  0  0
    0.3468   -1.7368    0.2413 C   0  0  0  0  0  0  0  0  0  0  0  0
   -0.9410   -2.0385   -0.1274 C   0  0  0  0  0  0  0  0  0  0  0  0
   -1.9475   -1.0964   -0.1265 C   0  0  0  0  0  0  0  0  0  0  0  0
   -3.2423   -1.4171   -0.5002 O   0  0  0  0  0  0  0  0  0  0  0  0
   -3.5356   -2.7399   -0.8913 C   0  0  0  0  0  0  0  0  0  0  0  0
   -3.2310   -3.6221    0.2936 C   0  0  0  0  0  0  0  0  0  0  0  0
   -3.1765   -4.9928    0.1224 C   0  0  0  0  0  0  0  0  0  0  0  0
   -2.9149   -5.8331    1.1706 C   0  0  0  0  0  0  0  0  0  0  0  0
   -2.6959   -5.3183    2.4434 C   0  0  0  0  0  0  0  0  0  0  0  0
   -2.7564   -3.9338    2.5879 C   0  0  0  0  0  0  0  0  0  0  0  0
   -3.0193   -3.0843    1.5373 C   0  0  0  0  0  0  0  0  0  0  0  0
   -1.6432    0.1958    0.2591 C   0  0  0  0  0  0  0  0  0  0  0  0
   -2.6877    1.1014    0.2423 O   0  0  0  0  0  0  0  0  0  0  0  0
   -2.4824    2.4476    0.5934 C   0  0  0  0  0  0  0  0  0  0  0  0
   -1.5281    3.0307   -0.3842 C   0  0  0  0  0  0  0  0  0  0  0  0
   -1.1270    2.3457   -1.5118 C   0  0  0  0  0  0  0  0  0  0  0  0
   -0.2474    2.9627   -2.3933 C   0  0  0  0  0  0  0  0  0  0  0  0
    0.2270    4.2312   -2.1659 C   0  0  0  0  0  0  0  0  0  0  0  0
   -0.1628    4.9381   -1.0378 C   0  0  0  0  0  0  0  0  0  0  0  0
   -1.0358    4.3030   -0.1798 C   0  0  0  0  0  0  0  0  0  0  0  0
   -0.3378    0.5324    0.6394 C   0  0  0  0  0  0  0  0  0  0  0  0
  1  2  1  0
  2  3  1  0
  3  4  2  0
  4  5  1  0
  5  6  1  0
  5  7  2  0
  7  8  1  0
  8  9  1  0
  8 10  2  0
 10 11  1  0
 11 12  1  0
 12 13  2  0
 13 14  1  0
 14 15  2  0
 15 16  1  0
 16 17  1  0
 17 18  1  0
 18 19  2  0
 19 20  1  0
 20 21  2  0
 21 22  1  0
 22 23  2  0
 15 24  1  0
 24 25  1  0
 25 26  1  0
 26 27  1  0
 27 28  2  0
 28 29  1  0
 29 30  2  0
 30 31  1  0
 31 32  2  0
 24 33  2  0
 10  3  1  0
 33 12  1  0
 23 18  1  0
 32 27  1  0
M  END
>  <zinc_id>  (452) 
ZINC000013472737

>  <ortholog_name>  (452) 
DRTS_PLAFK

>  <gene_name>  (452) 
DRTS_PLAFK

>  <affinity>  (452) 
5.38

>  <chembldocid>  (452) 
16871

>  <title>  (452) 
None

>  <reference.pubmed_id>  (452) 
11881993

>  <reference.doi>  (452) 
None

>  <reference.chembl_id>  (452) 
CHEMBL1135602

>  <reference.journal>  (452) 
J. Med. Chem.

>  <reference.year>  (452) 
2002

$$$$

     RDKit          3D

 33 36  0  0  0  0  0  0  0  0999 V2000
    2.3175    2.9335    1.5976 C   0  0  0  0  0  0  0  0  0  0  0  0
    1.8344    2.5091    0.2458 C   0  0  0  0  0  0  0  0  0  0  0  0
    2.8028    1.6308   -0.4457 C   0  0  0  0  0  0  0  0  0  0  0  0
    3.5711    2.0928   -1.4256 N   0  0  0  0  0  0  0  0  0  0  0  0
    4.4727    1.3046   -2.0669 C   0  0  0  0  0  0  0  0  0  0  0  0
    5.2781    1.8493   -3.1152 N   0  0  0  0  0  0  0  0  0  0  0  0
    4.5673    0.0291   -1.6786 N   0  0  0  0  0  0  0  0  0  0  0  0
    3.8115   -0.4832   -0.6929 C   0  0  0  0  0  0  0  0  0  0  0  0
    3.9181   -1.8486   -0.2841 N   0  0  0  0  0  0  0  0  0  0  0  0
    2.8972    0.2952   -0.0345 C   0  0  0  0  0  0  0  0  0  0  0  0
    2.0281   -0.1605    1.0425 C   0  0  0  0  0  0  0  0  0  0  0  0
    0.6402   -0.4275    0.6292 C   0  0  0  0  0  0  0  0  0  0  0  0
    0.3468   -1.7368    0.2413 C   0  0  0  0  0  0  0  0  0  0  0  0
   -0.9410   -2.0385   -0.1274 C   0  0  0  0  0  0  0  0  0  0  0  0
   -1.9475   -1.0964   -0.1265 C   0  0  0  0  0  0  0  0  0  0  0  0
   -3.2423   -1.4171   -0.5002 O   0  0  0  0  0  0  0  0  0  0  0  0
   -3.5356   -2.7399   -0.8913 C   0  0  0  0  0  0  0  0  0  0  0  0
   -3.2310   -3.6221    0.2936 C   0  0  0  0  0  0  0  0  0  0  0  0
   -3.1765   -4.9928    0.1224 C   0  0  0  0  0  0  0  0  0  0  0  0
   -2.9149   -5.8331    1.1706 C   0  0  0  0  0  0  0  0  0  0  0  0
   -2.6959   -5.3183    2.4434 C   0  0  0  0  0  0  0  0  0  0  0  0
   -2.7564   -3.9338    2.5879 C   0  0  0  0  0  0  0  0  0  0  0  0
   -3.0193   -3.0843    1.5373 C   0  0  0  0  0  0  0  0  0  0  0  0
   -1.6432    0.1958    0.2591 C   0  0  0  0  0  0  0  0  0  0  0  0
   -2.6877    1.1014    0.2423 O   0  0  0  0  0  0  0  0  0  0  0  0
   -2.4824    2.4476    0.5934 C   0  0  0  0  0  0  0  0  0  0  0  0
   -1.5281    3.0307   -0.3842 C   0  0  0  0  0  0  0  0  0  0  0  0
   -1.1270    2.3457   -1.5118 C   0  0  0  0  0  0  0  0  0  0  0  0
   -0.2474    2.9627   -2.3933 C   0  0  0  0  0  0  0  0  0  0  0  0
    0.2270    4.2312   -2.1659 C   0  0  0  0  0  0  0  0  0  0  0  0
   -0.1628    4.9381   -1.0378 C   0  0  0  0  0  0  0  0  0  0  0  0
   -1.0358    4.3030   -0.1798 C   0  0  0  0  0  0  0  0  0  0  0  0
   -0.3378    0.5324    0.6394 C   0  0  0  0  0  0  0  0  0  0  0  0
  1  2  1  0
  2  3  1  0
  3  4  2  0
  4  5  1  0
  5  6  1  0
  5  7  2  0
  7  8  1  0
  8  9  1  0
  8 10  2  0
 10 11  1  0
 11 12  1  0
 12 13  2  0
 13 14  1  0
 14 15  2  0
 15 16  1  0
 16 17  1  0
 17 18  1  0
 18 19  2  0
 19 20  1  0
 20 21  2  0
 21 22  1  0
 22 23  2  0
 15 24  1  0
 24 25  1  0
 25 26  1  0
 26 27  1  0
 27 28  2  0
 28 29  1  0
 29 30  2  0
 30 31  1  0
 31 32  2  0
 24 33  2  0
 10  3  1  0
 33 12  1  0
 23 18  1  0
 32 27  1  0
M  END
>  <zinc_id>  (453) 
ZINC000013472737

>  <ortholog_name>  (453) 
DRTS_PLAFK

>  <gene_name>  (453) 
DRTS_PLAFK

>  <affinity>  (453) 
7.33

>  <chembldocid>  (453) 
16871

>  <title>  (453) 
None

>  <reference.pubmed_id>  (453) 
11881993

>  <reference.doi>  (453) 
None

>  <reference.chembl_id>  (453) 
CHEMBL1135602

>  <reference.journal>  (453) 
J. Med. Chem.

>  <reference.year>  (453) 
2002

$$$$

     RDKit          3D

 33 36  0  0  0  0  0  0  0  0999 V2000
    2.3175    2.9335    1.5976 C   0  0  0  0  0  0  0  0  0  0  0  0
    1.8344    2.5091    0.2458 C   0  0  0  0  0  0  0  0  0  0  0  0
    2.8028    1.6308   -0.4457 C   0  0  0  0  0  0  0  0  0  0  0  0
    3.5711    2.0928   -1.4256 N   0  0  0  0  0  0  0  0  0  0  0  0
    4.4727    1.3046   -2.0669 C   0  0  0  0  0  0  0  0  0  0  0  0
    5.2781    1.8493   -3.1152 N   0  0  0  0  0  0  0  0  0  0  0  0
    4.5673    0.0291   -1.6786 N   0  0  0  0  0  0  0  0  0  0  0  0
    3.8115   -0.4832   -0.6929 C   0  0  0  0  0  0  0  0  0  0  0  0
    3.9181   -1.8486   -0.2841 N   0  0  0  0  0  0  0  0  0  0  0  0
    2.8972    0.2952   -0.0345 C   0  0  0  0  0  0  0  0  0  0  0  0
    2.0281   -0.1605    1.0425 C   0  0  0  0  0  0  0  0  0  0  0  0
    0.6402   -0.4275    0.6292 C   0  0  0  0  0  0  0  0  0  0  0  0
    0.3468   -1.7368    0.2413 C   0  0  0  0  0  0  0  0  0  0  0  0
   -0.9410   -2.0385   -0.1274 C   0  0  0  0  0  0  0  0  0  0  0  0
   -1.9475   -1.0964   -0.1265 C   0  0  0  0  0  0  0  0  0  0  0  0
   -3.2423   -1.4171   -0.5002 O   0  0  0  0  0  0  0  0  0  0  0  0
   -3.5356   -2.7399   -0.8913 C   0  0  0  0  0  0  0  0  0  0  0  0
   -3.2310   -3.6221    0.2936 C   0  0  0  0  0  0  0  0  0  0  0  0
   -3.1765   -4.9928    0.1224 C   0  0  0  0  0  0  0  0  0  0  0  0
   -2.9149   -5.8331    1.1706 C   0  0  0  0  0  0  0  0  0  0  0  0
   -2.6959   -5.3183    2.4434 C   0  0  0  0  0  0  0  0  0  0  0  0
   -2.7564   -3.9338    2.5879 C   0  0  0  0  0  0  0  0  0  0  0  0
   -3.0193   -3.0843    1.5373 C   0  0  0  0  0  0  0  0  0  0  0  0
   -1.6432    0.1958    0.2591 C   0  0  0  0  0  0  0  0  0  0  0  0
   -2.6877    1.1014    0.2423 O   0  0  0  0  0  0  0  0  0  0  0  0
   -2.4824    2.4476    0.5934 C   0  0  0  0  0  0  0  0  0  0  0  0
   -1.5281    3.0307   -0.3842 C   0  0  0  0  0  0  0  0  0  0  0  0
   -1.1270    2.3457   -1.5118 C   0  0  0  0  0  0  0  0  0  0  0  0
   -0.2474    2.9627   -2.3933 C   0  0  0  0  0  0  0  0  0  0  0  0
    0.2270    4.2312   -2.1659 C   0  0  0  0  0  0  0  0  0  0  0  0
   -0.1628    4.9381   -1.0378 C   0  0  0  0  0  0  0  0  0  0  0  0
   -1.0358    4.3030   -0.1798 C   0  0  0  0  0  0  0  0  0  0  0  0
   -0.3378    0.5324    0.6394 C   0  0  0  0  0  0  0  0  0  0  0  0
  1  2  1  0
  2  3  1  0
  3  4  2  0
  4  5  1  0
  5  6  1  0
  5  7  2  0
  7  8  1  0
  8  9  1  0
  8 10  2  0
 10 11  1  0
 11 12  1  0
 12 13  2  0
 13 14  1  0
 14 15  2  0
 15 16  1  0
 16 17  1  0
 17 18  1  0
 18 19  2  0
 19 20  1  0
 20 21  2  0
 21 22  1  0
 22 23  2  0
 15 24  1  0
 24 25  1  0
 25 26  1  0
 26 27  1  0
 27 28  2  0
 28 29  1  0
 29 30  2  0
 30 31  1  0
 31 32  2  0
 24 33  2  0
 10  3  1  0
 33 12  1  0
 23 18  1  0
 32 27  1  0
M  END
>  <zinc_id>  (454) 
ZINC000013472737

>  <ortholog_name>  (454) 
DRTS_PLAFK

>  <gene_name>  (454) 
DRTS_PLAFK

>  <affinity>  (454) 
6.27

>  <chembldocid>  (454) 
17636

>  <title>  (454) 
None

>  <reference.pubmed_id>  (454) 
14711307

>  <reference.doi>  (454) 
None

>  <reference.chembl_id>  (454) 
CHEMBL1148379

>  <reference.journal>  (454) 
J. Med. Chem.

>  <reference.year>  (454) 
2004

$$$$

     RDKit          3D

 33 36  0  0  0  0  0  0  0  0999 V2000
    2.3175    2.9335    1.5976 C   0  0  0  0  0  0  0  0  0  0  0  0
    1.8344    2.5091    0.2458 C   0  0  0  0  0  0  0  0  0  0  0  0
    2.8028    1.6308   -0.4457 C   0  0  0  0  0  0  0  0  0  0  0  0
    3.5711    2.0928   -1.4256 N   0  0  0  0  0  0  0  0  0  0  0  0
    4.4727    1.3046   -2.0669 C   0  0  0  0  0  0  0  0  0  0  0  0
    5.2781    1.8493   -3.1152 N   0  0  0  0  0  0  0  0  0  0  0  0
    4.5673    0.0291   -1.6786 N   0  0  0  0  0  0  0  0  0  0  0  0
    3.8115   -0.4832   -0.6929 C   0  0  0  0  0  0  0  0  0  0  0  0
    3.9181   -1.8486   -0.2841 N   0  0  0  0  0  0  0  0  0  0  0  0
    2.8972    0.2952   -0.0345 C   0  0  0  0  0  0  0  0  0  0  0  0
    2.0281   -0.1605    1.0425 C   0  0  0  0  0  0  0  0  0  0  0  0
    0.6402   -0.4275    0.6292 C   0  0  0  0  0  0  0  0  0  0  0  0
    0.3468   -1.7368    0.2413 C   0  0  0  0  0  0  0  0  0  0  0  0
   -0.9410   -2.0385   -0.1274 C   0  0  0  0  0  0  0  0  0  0  0  0
   -1.9475   -1.0964   -0.1265 C   0  0  0  0  0  0  0  0  0  0  0  0
   -3.2423   -1.4171   -0.5002 O   0  0  0  0  0  0  0  0  0  0  0  0
   -3.5356   -2.7399   -0.8913 C   0  0  0  0  0  0  0  0  0  0  0  0
   -3.2310   -3.6221    0.2936 C   0  0  0  0  0  0  0  0  0  0  0  0
   -3.1765   -4.9928    0.1224 C   0  0  0  0  0  0  0  0  0  0  0  0
   -2.9149   -5.8331    1.1706 C   0  0  0  0  0  0  0  0  0  0  0  0
   -2.6959   -5.3183    2.4434 C   0  0  0  0  0  0  0  0  0  0  0  0
   -2.7564   -3.9338    2.5879 C   0  0  0  0  0  0  0  0  0  0  0  0
   -3.0193   -3.0843    1.5373 C   0  0  0  0  0  0  0  0  0  0  0  0
   -1.6432    0.1958    0.2591 C   0  0  0  0  0  0  0  0  0  0  0  0
   -2.6877    1.1014    0.2423 O   0  0  0  0  0  0  0  0  0  0  0  0
   -2.4824    2.4476    0.5934 C   0  0  0  0  0  0  0  0  0  0  0  0
   -1.5281    3.0307   -0.3842 C   0  0  0  0  0  0  0  0  0  0  0  0
   -1.1270    2.3457   -1.5118 C   0  0  0  0  0  0  0  0  0  0  0  0
   -0.2474    2.9627   -2.3933 C   0  0  0  0  0  0  0  0  0  0  0  0
    0.2270    4.2312   -2.1659 C   0  0  0  0  0  0  0  0  0  0  0  0
   -0.1628    4.9381   -1.0378 C   0  0  0  0  0  0  0  0  0  0  0  0
   -1.0358    4.3030   -0.1798 C   0  0  0  0  0  0  0  0  0  0  0  0
   -0.3378    0.5324    0.6394 C   0  0  0  0  0  0  0  0  0  0  0  0
  1  2  1  0
  2  3  1  0
  3  4  2  0
  4  5  1  0
  5  6  1  0
  5  7  2  0
  7  8  1  0
  8  9  1  0
  8 10  2  0
 10 11  1  0
 11 12  1  0
 12 13  2  0
 13 14  1  0
 14 15  2  0
 15 16  1  0
 16 17  1  0
 17 18  1  0
 18 19  2  0
 19 20  1  0
 20 21  2  0
 21 22  1  0
 22 23  2  0
 15 24  1  0
 24 25  1  0
 25 26  1  0
 26 27  1  0
 27 28  2  0
 28 29  1  0
 29 30  2  0
 30 31  1  0
 31 32  2  0
 24 33  2  0
 10  3  1  0
 33 12  1  0
 23 18  1  0
 32 27  1  0
M  END
>  <zinc_id>  (455) 
ZINC000013472737

>  <ortholog_name>  (455) 
DRTS_PLAFK

>  <gene_name>  (455) 
DRTS_PLAFK

>  <affinity>  (455) 
7.00

>  <chembldocid>  (455) 
16871

>  <title>  (455) 
None

>  <reference.pubmed_id>  (455) 
11881993

>  <reference.doi>  (455) 
None

>  <reference.chembl_id>  (455) 
CHEMBL1135602

>  <reference.journal>  (455) 
J. Med. Chem.

>  <reference.year>  (455) 
2002

$$$$

     RDKit          3D

 33 36  0  0  0  0  0  0  0  0999 V2000
    2.3175    2.9335    1.5976 C   0  0  0  0  0  0  0  0  0  0  0  0
    1.8344    2.5091    0.2458 C   0  0  0  0  0  0  0  0  0  0  0  0
    2.8028    1.6308   -0.4457 C   0  0  0  0  0  0  0  0  0  0  0  0
    3.5711    2.0928   -1.4256 N   0  0  0  0  0  0  0  0  0  0  0  0
    4.4727    1.3046   -2.0669 C   0  0  0  0  0  0  0  0  0  0  0  0
    5.2781    1.8493   -3.1152 N   0  0  0  0  0  0  0  0  0  0  0  0
    4.5673    0.0291   -1.6786 N   0  0  0  0  0  0  0  0  0  0  0  0
    3.8115   -0.4832   -0.6929 C   0  0  0  0  0  0  0  0  0  0  0  0
    3.9181   -1.8486   -0.2841 N   0  0  0  0  0  0  0  0  0  0  0  0
    2.8972    0.2952   -0.0345 C   0  0  0  0  0  0  0  0  0  0  0  0
    2.0281   -0.1605    1.0425 C   0  0  0  0  0  0  0  0  0  0  0  0
    0.6402   -0.4275    0.6292 C   0  0  0  0  0  0  0  0  0  0  0  0
    0.3468   -1.7368    0.2413 C   0  0  0  0  0  0  0  0  0  0  0  0
   -0.9410   -2.0385   -0.1274 C   0  0  0  0  0  0  0  0  0  0  0  0
   -1.9475   -1.0964   -0.1265 C   0  0  0  0  0  0  0  0  0  0  0  0
   -3.2423   -1.4171   -0.5002 O   0  0  0  0  0  0  0  0  0  0  0  0
   -3.5356   -2.7399   -0.8913 C   0  0  0  0  0  0  0  0  0  0  0  0
   -3.2310   -3.6221    0.2936 C   0  0  0  0  0  0  0  0  0  0  0  0
   -3.1765   -4.9928    0.1224 C   0  0  0  0  0  0  0  0  0  0  0  0
   -2.9149   -5.8331    1.1706 C   0  0  0  0  0  0  0  0  0  0  0  0
   -2.6959   -5.3183    2.4434 C   0  0  0  0  0  0  0  0  0  0  0  0
   -2.7564   -3.9338    2.5879 C   0  0  0  0  0  0  0  0  0  0  0  0
   -3.0193   -3.0843    1.5373 C   0  0  0  0  0  0  0  0  0  0  0  0
   -1.6432    0.1958    0.2591 C   0  0  0  0  0  0  0  0  0  0  0  0
   -2.6877    1.1014    0.2423 O   0  0  0  0  0  0  0  0  0  0  0  0
   -2.4824    2.4476    0.5934 C   0  0  0  0  0  0  0  0  0  0  0  0
   -1.5281    3.0307   -0.3842 C   0  0  0  0  0  0  0  0  0  0  0  0
   -1.1270    2.3457   -1.5118 C   0  0  0  0  0  0  0  0  0  0  0  0
   -0.2474    2.9627   -2.3933 C   0  0  0  0  0  0  0  0  0  0  0  0
    0.2270    4.2312   -2.1659 C   0  0  0  0  0  0  0  0  0  0  0  0
   -0.1628    4.9381   -1.0378 C   0  0  0  0  0  0  0  0  0  0  0  0
   -1.0358    4.3030   -0.1798 C   0  0  0  0  0  0  0  0  0  0  0  0
   -0.3378    0.5324    0.6394 C   0  0  0  0  0  0  0  0  0  0  0  0
  1  2  1  0
  2  3  1  0
  3  4  2  0
  4  5  1  0
  5  6  1  0
  5  7  2  0
  7  8  1  0
  8  9  1  0
  8 10  2  0
 10 11  1  0
 11 12  1  0
 12 13  2  0
 13 14  1  0
 14 15  2  0
 15 16  1  0
 16 17  1  0
 17 18  1  0
 18 19  2  0
 19 20  1  0
 20 21  2  0
 21 22  1  0
 22 23  2  0
 15 24  1  0
 24 25  1  0
 25 26  1  0
 26 27  1  0
 27 28  2  0
 28 29  1  0
 29 30  2  0
 30 31  1  0
 31 32  2  0
 24 33  2  0
 10  3  1  0
 33 12  1  0
 23 18  1  0
 32 27  1  0
M  END
>  <zinc_id>  (456) 
ZINC000013472737

>  <ortholog_name>  (456) 
DRTS_PLAFK

>  <gene_name>  (456) 
DRTS_PLAFK

>  <affinity>  (456) 
7.00

>  <chembldocid>  (456) 
17636

>  <title>  (456) 
None

>  <reference.pubmed_id>  (456) 
14711307

>  <reference.doi>  (456) 
None

>  <reference.chembl_id>  (456) 
CHEMBL1148379

>  <reference.journal>  (456) 
J. Med. Chem.

>  <reference.year>  (456) 
2004

$$$$

     RDKit          3D

 37 40  0  0  0  0  0  0  0  0999 V2000
    3.7777    2.5657   -0.7765 C   0  0  0  0  0  0  0  0  0  0  0  0
    4.6055    1.4529   -1.0349 O   0  0  0  0  0  0  0  0  0  0  0  0
    4.1070    0.1643   -0.8290 C   0  0  0  0  0  0  0  0  0  0  0  0
    2.8214   -0.0566   -0.3770 C   0  0  0  0  0  0  0  0  0  0  0  0
    2.3052   -1.3186   -0.1659 C   0  0  0  0  0  0  0  0  0  0  0  0
    0.9072   -1.5198    0.3256 C   0  0  0  0  0  0  0  0  0  0  0  0
    0.3426   -0.2440    0.5462 O   0  0  0  0  0  0  0  0  0  0  0  0
   -0.9320   -0.0214    0.9992 C   0  0  0  0  0  0  0  0  0  0  0  0
   -1.7827   -1.0689    1.2791 C   0  0  0  0  0  0  0  0  0  0  0  0
   -3.0756   -0.8571    1.7385 C   0  0  0  0  0  0  0  0  0  0  0  0
   -3.9984   -1.9662    2.0427 C   0  0  0  0  0  0  0  0  0  0  0  0
   -4.8247   -2.3843    0.8958 C   0  0  0  0  0  0  0  0  0  0  0  0
   -6.1657   -2.0454    0.7753 C   0  0  0  0  0  0  0  0  0  0  0  0
   -6.8744   -2.4525   -0.2915 N   0  0  0  0  0  0  0  0  0  0  0  0
   -6.3362   -3.1972   -1.2852 C   0  0  0  0  0  0  0  0  0  0  0  0
   -7.1387   -3.5989   -2.3918 N   0  0  0  0  0  0  0  0  0  0  0  0
   -5.0378   -3.5191   -1.1581 N   0  0  0  0  0  0  0  0  0  0  0  0
   -4.2803   -3.1439   -0.1200 C   0  0  0  0  0  0  0  0  0  0  0  0
   -2.9019   -3.4944   -0.0002 N   0  0  0  0  0  0  0  0  0  0  0  0
   -3.4617    0.4617    1.8990 C   0  0  0  0  0  0  0  0  0  0  0  0
   -2.6148    1.5272    1.6208 C   0  0  0  0  0  0  0  0  0  0  0  0
   -1.3441    1.2810    1.1687 C   0  0  0  0  0  0  0  0  0  0  0  0
   -0.4682    2.3451    0.8806 O   0  0  0  0  0  0  0  0  0  0  0  0
   -0.8773    3.6851    1.0513 C   0  0  0  0  0  0  0  0  0  0  0  0
    0.2695    4.5574    0.6659 C   0  0  0  0  0  0  0  0  0  0  0  0
    0.3837    4.9949   -0.6176 C   0  0  0  0  0  0  0  0  0  0  0  0
    1.4175    5.7942   -1.0187 C   0  0  0  0  0  0  0  0  0  0  0  0
    2.3880    6.1787   -0.0967 C   0  0  0  0  0  0  0  0  0  0  0  0
    2.2519    5.7243    1.1955 C   0  0  0  0  0  0  0  0  0  0  0  0
    1.2087    4.9201    1.5918 C   0  0  0  0  0  0  0  0  0  0  0  0
    3.1372   -2.3949   -0.4277 C   0  0  0  0  0  0  0  0  0  0  0  0
    4.4363   -2.2155   -0.8834 C   0  0  0  0  0  0  0  0  0  0  0  0
    5.2665   -3.2902   -1.1447 O   0  0  0  0  0  0  0  0  0  0  0  0
    4.8854   -4.6264   -0.9787 C   0  0  0  0  0  0  0  0  0  0  0  0
    4.9018   -0.9330   -1.0774 C   0  0  0  0  0  0  0  0  0  0  0  0
    6.2096   -0.6983   -1.5373 O   0  0  0  0  0  0  0  0  0  0  0  0
    6.4920   -0.6060   -2.9268 C   0  0  0  0  0  0  0  0  0  0  0  0
  1  2  1  0
  2  3  1  0
  3  4  2  0
  4  5  1  0
  5  6  1  0
  6  7  1  0
  7  8  1  0
  8  9  2  0
  9 10  1  0
 10 11  1  0
 11 12  1  0
 12 13  2  0
 13 14  1  0
 14 15  2  0
 15 16  1  0
 15 17  1  0
 17 18  2  0
 18 19  1  0
 10 20  2  0
 20 21  1  0
 21 22  2  0
 22 23  1  0
 23 24  1  0
 24 25  1  0
 25 26  2  0
 26 27  1  0
 27 28  2  0
 28 29  1  0
 29 30  2  0
  5 31  2  0
 31 32  1  0
 32 33  1  0
 33 34  1  0
 32 35  2  0
 35 36  1  0
 36 37  1  0
 35  3  1  0
 22  8  1  0
 30 25  1  0
 18 12  1  0
M  END
>  <zinc_id>  (457) 
ZINC000013472738

>  <ortholog_name>  (457) 
DRTS_PLAFK

>  <gene_name>  (457) 
DRTS_PLAFK

>  <affinity>  (457) 
7.92

>  <chembldocid>  (457) 
16871

>  <title>  (457) 
None

>  <reference.pubmed_id>  (457) 
11881993

>  <reference.doi>  (457) 
None

>  <reference.chembl_id>  (457) 
CHEMBL1135602

>  <reference.journal>  (457) 
J. Med. Chem.

>  <reference.year>  (457) 
2002

$$$$

     RDKit          3D

 37 40  0  0  0  0  0  0  0  0999 V2000
    3.7777    2.5657   -0.7765 C   0  0  0  0  0  0  0  0  0  0  0  0
    4.6055    1.4529   -1.0349 O   0  0  0  0  0  0  0  0  0  0  0  0
    4.1070    0.1643   -0.8290 C   0  0  0  0  0  0  0  0  0  0  0  0
    2.8214   -0.0566   -0.3770 C   0  0  0  0  0  0  0  0  0  0  0  0
    2.3052   -1.3186   -0.1659 C   0  0  0  0  0  0  0  0  0  0  0  0
    0.9072   -1.5198    0.3256 C   0  0  0  0  0  0  0  0  0  0  0  0
    0.3426   -0.2440    0.5462 O   0  0  0  0  0  0  0  0  0  0  0  0
   -0.9320   -0.0214    0.9992 C   0  0  0  0  0  0  0  0  0  0  0  0
   -1.7827   -1.0689    1.2791 C   0  0  0  0  0  0  0  0  0  0  0  0
   -3.0756   -0.8571    1.7385 C   0  0  0  0  0  0  0  0  0  0  0  0
   -3.9984   -1.9662    2.0427 C   0  0  0  0  0  0  0  0  0  0  0  0
   -4.8247   -2.3843    0.8958 C   0  0  0  0  0  0  0  0  0  0  0  0
   -6.1657   -2.0454    0.7753 C   0  0  0  0  0  0  0  0  0  0  0  0
   -6.8744   -2.4525   -0.2915 N   0  0  0  0  0  0  0  0  0  0  0  0
   -6.3362   -3.1972   -1.2852 C   0  0  0  0  0  0  0  0  0  0  0  0
   -7.1387   -3.5989   -2.3918 N   0  0  0  0  0  0  0  0  0  0  0  0
   -5.0378   -3.5191   -1.1581 N   0  0  0  0  0  0  0  0  0  0  0  0
   -4.2803   -3.1439   -0.1200 C   0  0  0  0  0  0  0  0  0  0  0  0
   -2.9019   -3.4944   -0.0002 N   0  0  0  0  0  0  0  0  0  0  0  0
   -3.4617    0.4617    1.8990 C   0  0  0  0  0  0  0  0  0  0  0  0
   -2.6148    1.5272    1.6208 C   0  0  0  0  0  0  0  0  0  0  0  0
   -1.3441    1.2810    1.1687 C   0  0  0  0  0  0  0  0  0  0  0  0
   -0.4682    2.3451    0.8806 O   0  0  0  0  0  0  0  0  0  0  0  0
   -0.8773    3.6851    1.0513 C   0  0  0  0  0  0  0  0  0  0  0  0
    0.2695    4.5574    0.6659 C   0  0  0  0  0  0  0  0  0  0  0  0
    0.3837    4.9949   -0.6176 C   0  0  0  0  0  0  0  0  0  0  0  0
    1.4175    5.7942   -1.0187 C   0  0  0  0  0  0  0  0  0  0  0  0
    2.3880    6.1787   -0.0967 C   0  0  0  0  0  0  0  0  0  0  0  0
    2.2519    5.7243    1.1955 C   0  0  0  0  0  0  0  0  0  0  0  0
    1.2087    4.9201    1.5918 C   0  0  0  0  0  0  0  0  0  0  0  0
    3.1372   -2.3949   -0.4277 C   0  0  0  0  0  0  0  0  0  0  0  0
    4.4363   -2.2155   -0.8834 C   0  0  0  0  0  0  0  0  0  0  0  0
    5.2665   -3.2902   -1.1447 O   0  0  0  0  0  0  0  0  0  0  0  0
    4.8854   -4.6264   -0.9787 C   0  0  0  0  0  0  0  0  0  0  0  0
    4.9018   -0.9330   -1.0774 C   0  0  0  0  0  0  0  0  0  0  0  0
    6.2096   -0.6983   -1.5373 O   0  0  0  0  0  0  0  0  0  0  0  0
    6.4920   -0.6060   -2.9268 C   0  0  0  0  0  0  0  0  0  0  0  0
  1  2  1  0
  2  3  1  0
  3  4  2  0
  4  5  1  0
  5  6  1  0
  6  7  1  0
  7  8  1  0
  8  9  2  0
  9 10  1  0
 10 11  1  0
 11 12  1  0
 12 13  2  0
 13 14  1  0
 14 15  2  0
 15 16  1  0
 15 17  1  0
 17 18  2  0
 18 19  1  0
 10 20  2  0
 20 21  1  0
 21 22  2  0
 22 23  1  0
 23 24  1  0
 24 25  1  0
 25 26  2  0
 26 27  1  0
 27 28  2  0
 28 29  1  0
 29 30  2  0
  5 31  2  0
 31 32  1  0
 32 33  1  0
 33 34  1  0
 32 35  2  0
 35 36  1  0
 36 37  1  0
 35  3  1  0
 22  8  1  0
 30 25  1  0
 18 12  1  0
M  END
>  <zinc_id>  (458) 
ZINC000013472738

>  <ortholog_name>  (458) 
DRTS_PLAFK

>  <gene_name>  (458) 
DRTS_PLAFK

>  <affinity>  (458) 
6.75

>  <chembldocid>  (458) 
16871

>  <title>  (458) 
None

>  <reference.pubmed_id>  (458) 
11881993

>  <reference.doi>  (458) 
None

>  <reference.chembl_id>  (458) 
CHEMBL1135602

>  <reference.journal>  (458) 
J. Med. Chem.

>  <reference.year>  (458) 
2002

$$$$

     RDKit          3D

 37 40  0  0  0  0  0  0  0  0999 V2000
    3.7777    2.5657   -0.7765 C   0  0  0  0  0  0  0  0  0  0  0  0
    4.6055    1.4529   -1.0349 O   0  0  0  0  0  0  0  0  0  0  0  0
    4.1070    0.1643   -0.8290 C   0  0  0  0  0  0  0  0  0  0  0  0
    2.8214   -0.0566   -0.3770 C   0  0  0  0  0  0  0  0  0  0  0  0
    2.3052   -1.3186   -0.1659 C   0  0  0  0  0  0  0  0  0  0  0  0
    0.9072   -1.5198    0.3256 C   0  0  0  0  0  0  0  0  0  0  0  0
    0.3426   -0.2440    0.5462 O   0  0  0  0  0  0  0  0  0  0  0  0
   -0.9320   -0.0214    0.9992 C   0  0  0  0  0  0  0  0  0  0  0  0
   -1.7827   -1.0689    1.2791 C   0  0  0  0  0  0  0  0  0  0  0  0
   -3.0756   -0.8571    1.7385 C   0  0  0  0  0  0  0  0  0  0  0  0
   -3.9984   -1.9662    2.0427 C   0  0  0  0  0  0  0  0  0  0  0  0
   -4.8247   -2.3843    0.8958 C   0  0  0  0  0  0  0  0  0  0  0  0
   -6.1657   -2.0454    0.7753 C   0  0  0  0  0  0  0  0  0  0  0  0
   -6.8744   -2.4525   -0.2915 N   0  0  0  0  0  0  0  0  0  0  0  0
   -6.3362   -3.1972   -1.2852 C   0  0  0  0  0  0  0  0  0  0  0  0
   -7.1387   -3.5989   -2.3918 N   0  0  0  0  0  0  0  0  0  0  0  0
   -5.0378   -3.5191   -1.1581 N   0  0  0  0  0  0  0  0  0  0  0  0
   -4.2803   -3.1439   -0.1200 C   0  0  0  0  0  0  0  0  0  0  0  0
   -2.9019   -3.4944   -0.0002 N   0  0  0  0  0  0  0  0  0  0  0  0
   -3.4617    0.4617    1.8990 C   0  0  0  0  0  0  0  0  0  0  0  0
   -2.6148    1.5272    1.6208 C   0  0  0  0  0  0  0  0  0  0  0  0
   -1.3441    1.2810    1.1687 C   0  0  0  0  0  0  0  0  0  0  0  0
   -0.4682    2.3451    0.8806 O   0  0  0  0  0  0  0  0  0  0  0  0
   -0.8773    3.6851    1.0513 C   0  0  0  0  0  0  0  0  0  0  0  0
    0.2695    4.5574    0.6659 C   0  0  0  0  0  0  0  0  0  0  0  0
    0.3837    4.9949   -0.6176 C   0  0  0  0  0  0  0  0  0  0  0  0
    1.4175    5.7942   -1.0187 C   0  0  0  0  0  0  0  0  0  0  0  0
    2.3880    6.1787   -0.0967 C   0  0  0  0  0  0  0  0  0  0  0  0
    2.2519    5.7243    1.1955 C   0  0  0  0  0  0  0  0  0  0  0  0
    1.2087    4.9201    1.5918 C   0  0  0  0  0  0  0  0  0  0  0  0
    3.1372   -2.3949   -0.4277 C   0  0  0  0  0  0  0  0  0  0  0  0
    4.4363   -2.2155   -0.8834 C   0  0  0  0  0  0  0  0  0  0  0  0
    5.2665   -3.2902   -1.1447 O   0  0  0  0  0  0  0  0  0  0  0  0
    4.8854   -4.6264   -0.9787 C   0  0  0  0  0  0  0  0  0  0  0  0
    4.9018   -0.9330   -1.0774 C   0  0  0  0  0  0  0  0  0  0  0  0
    6.2096   -0.6983   -1.5373 O   0  0  0  0  0  0  0  0  0  0  0  0
    6.4920   -0.6060   -2.9268 C   0  0  0  0  0  0  0  0  0  0  0  0
  1  2  1  0
  2  3  1  0
  3  4  2  0
  4  5  1  0
  5  6  1  0
  6  7  1  0
  7  8  1  0
  8  9  2  0
  9 10  1  0
 10 11  1  0
 11 12  1  0
 12 13  2  0
 13 14  1  0
 14 15  2  0
 15 16  1  0
 15 17  1  0
 17 18  2  0
 18 19  1  0
 10 20  2  0
 20 21  1  0
 21 22  2  0
 22 23  1  0
 23 24  1  0
 24 25  1  0
 25 26  2  0
 26 27  1  0
 27 28  2  0
 28 29  1  0
 29 30  2  0
  5 31  2  0
 31 32  1  0
 32 33  1  0
 33 34  1  0
 32 35  2  0
 35 36  1  0
 36 37  1  0
 35  3  1  0
 22  8  1  0
 30 25  1  0
 18 12  1  0
M  END
>  <zinc_id>  (459) 
ZINC000013472738

>  <ortholog_name>  (459) 
DRTS_PLAFK

>  <gene_name>  (459) 
DRTS_PLAFK

>  <affinity>  (459) 
6.30

>  <chembldocid>  (459) 
16871

>  <title>  (459) 
None

>  <reference.pubmed_id>  (459) 
11881993

>  <reference.doi>  (459) 
None

>  <reference.chembl_id>  (459) 
CHEMBL1135602

>  <reference.journal>  (459) 
J. Med. Chem.

>  <reference.year>  (459) 
2002

$$$$

     RDKit          3D

 29 31  0  0  0  0  0  0  0  0999 V2000
   -3.8276    3.2013   -1.6999 C   0  0  0  0  0  0  0  0  0  0  0  0
   -4.9128    2.3586   -1.3690 O   0  0  0  0  0  0  0  0  0  0  0  0
   -4.6600    1.1712   -0.6951 C   0  0  0  0  0  0  0  0  0  0  0  0
   -3.3617    0.8237   -0.3563 C   0  0  0  0  0  0  0  0  0  0  0  0
   -3.0970   -0.3481    0.3107 C   0  0  0  0  0  0  0  0  0  0  0  0
   -1.7176   -0.7905    0.6930 C   0  0  0  0  0  0  0  0  0  0  0  0
   -0.8012   -0.5243   -0.3516 O   0  0  0  0  0  0  0  0  0  0  0  0
    0.5455   -0.8195   -0.3191 C   0  0  0  0  0  0  0  0  0  0  0  0
    1.1967   -1.4171    0.7345 C   0  0  0  0  0  0  0  0  0  0  0  0
    2.5723   -1.6685    0.6502 C   0  0  0  0  0  0  0  0  0  0  0  0
    3.2883   -1.3237   -0.4803 C   0  0  0  0  0  0  0  0  0  0  0  0
    4.7442   -1.5646   -0.6343 C   0  0  0  0  0  0  0  0  0  0  0  0
    5.4650   -0.3836   -0.1304 C   0  0  0  0  0  0  0  0  0  0  0  0
    6.0383    0.5661   -0.9462 C   0  0  0  0  0  0  0  0  0  0  0  0
    6.6704    1.6039   -0.4004 N   0  0  0  0  0  0  0  0  0  0  0  0
    6.7867    1.7874    0.9253 C   0  0  0  0  0  0  0  0  0  0  0  0
    7.4746    2.9180    1.4401 N   0  0  0  0  0  0  0  0  0  0  0  0
    6.2237    0.8551    1.7343 N   0  0  0  0  0  0  0  0  0  0  0  0
    5.5724   -0.2149    1.2193 C   0  0  0  0  0  0  0  0  0  0  0  0
    5.0097   -1.1485    2.1071 N   0  0  0  0  0  0  0  0  0  0  0  0
    2.6358   -0.7281   -1.5271 C   0  0  0  0  0  0  0  0  0  0  0  0
    1.2863   -0.4865   -1.4334 C   0  0  0  0  0  0  0  0  0  0  0  0
   -4.1598   -1.1659    0.6324 C   0  0  0  0  0  0  0  0  0  0  0  0
   -5.4679   -0.8139    0.2896 C   0  0  0  0  0  0  0  0  0  0  0  0
   -6.5416   -1.6310    0.6082 O   0  0  0  0  0  0  0  0  0  0  0  0
   -6.3661   -2.8494    1.3074 C   0  0  0  0  0  0  0  0  0  0  0  0
   -5.7386    0.3585   -0.3787 C   0  0  0  0  0  0  0  0  0  0  0  0
   -7.0381    0.7287   -0.7297 O   0  0  0  0  0  0  0  0  0  0  0  0
   -7.8198    1.5059    0.1845 C   0  0  0  0  0  0  0  0  0  0  0  0
  1  2  1  0
  2  3  1  0
  3  4  2  0
  4  5  1  0
  5  6  1  0
  6  7  1  0
  7  8  1  0
  8  9  2  0
  9 10  1  0
 10 11  2  0
 11 12  1  0
 12 13  1  0
 13 14  2  0
 14 15  1  0
 15 16  2  0
 16 17  1  0
 16 18  1  0
 18 19  2  0
 19 20  1  0
 11 21  1  0
 21 22  2  0
  5 23  2  0
 23 24  1  0
 24 25  1  0
 25 26  1  0
 24 27  2  0
 27 28  1  0
 28 29  1  0
 27  3  1  0
 22  8  1  0
 19 13  1  0
M  END
>  <zinc_id>  (460) 
ZINC000013472739

>  <ortholog_name>  (460) 
DRTS_PLAFK

>  <gene_name>  (460) 
DRTS_PLAFK

>  <affinity>  (460) 
8.89

>  <chembldocid>  (460) 
16871

>  <title>  (460) 
None

>  <reference.pubmed_id>  (460) 
11881993

>  <reference.doi>  (460) 
None

>  <reference.chembl_id>  (460) 
CHEMBL1135602

>  <reference.journal>  (460) 
J. Med. Chem.

>  <reference.year>  (460) 
2002

$$$$

     RDKit          3D

 29 31  0  0  0  0  0  0  0  0999 V2000
   -3.8276    3.2013   -1.6999 C   0  0  0  0  0  0  0  0  0  0  0  0
   -4.9128    2.3586   -1.3690 O   0  0  0  0  0  0  0  0  0  0  0  0
   -4.6600    1.1712   -0.6951 C   0  0  0  0  0  0  0  0  0  0  0  0
   -3.3617    0.8237   -0.3563 C   0  0  0  0  0  0  0  0  0  0  0  0
   -3.0970   -0.3481    0.3107 C   0  0  0  0  0  0  0  0  0  0  0  0
   -1.7176   -0.7905    0.6930 C   0  0  0  0  0  0  0  0  0  0  0  0
   -0.8012   -0.5243   -0.3516 O   0  0  0  0  0  0  0  0  0  0  0  0
    0.5455   -0.8195   -0.3191 C   0  0  0  0  0  0  0  0  0  0  0  0
    1.1967   -1.4171    0.7345 C   0  0  0  0  0  0  0  0  0  0  0  0
    2.5723   -1.6685    0.6502 C   0  0  0  0  0  0  0  0  0  0  0  0
    3.2883   -1.3237   -0.4803 C   0  0  0  0  0  0  0  0  0  0  0  0
    4.7442   -1.5646   -0.6343 C   0  0  0  0  0  0  0  0  0  0  0  0
    5.4650   -0.3836   -0.1304 C   0  0  0  0  0  0  0  0  0  0  0  0
    6.0383    0.5661   -0.9462 C   0  0  0  0  0  0  0  0  0  0  0  0
    6.6704    1.6039   -0.4004 N   0  0  0  0  0  0  0  0  0  0  0  0
    6.7867    1.7874    0.9253 C   0  0  0  0  0  0  0  0  0  0  0  0
    7.4746    2.9180    1.4401 N   0  0  0  0  0  0  0  0  0  0  0  0
    6.2237    0.8551    1.7343 N   0  0  0  0  0  0  0  0  0  0  0  0
    5.5724   -0.2149    1.2193 C   0  0  0  0  0  0  0  0  0  0  0  0
    5.0097   -1.1485    2.1071 N   0  0  0  0  0  0  0  0  0  0  0  0
    2.6358   -0.7281   -1.5271 C   0  0  0  0  0  0  0  0  0  0  0  0
    1.2863   -0.4865   -1.4334 C   0  0  0  0  0  0  0  0  0  0  0  0
   -4.1598   -1.1659    0.6324 C   0  0  0  0  0  0  0  0  0  0  0  0
   -5.4679   -0.8139    0.2896 C   0  0  0  0  0  0  0  0  0  0  0  0
   -6.5416   -1.6310    0.6082 O   0  0  0  0  0  0  0  0  0  0  0  0
   -6.3661   -2.8494    1.3074 C   0  0  0  0  0  0  0  0  0  0  0  0
   -5.7386    0.3585   -0.3787 C   0  0  0  0  0  0  0  0  0  0  0  0
   -7.0381    0.7287   -0.7297 O   0  0  0  0  0  0  0  0  0  0  0  0
   -7.8198    1.5059    0.1845 C   0  0  0  0  0  0  0  0  0  0  0  0
  1  2  1  0
  2  3  1  0
  3  4  2  0
  4  5  1  0
  5  6  1  0
  6  7  1  0
  7  8  1  0
  8  9  2  0
  9 10  1  0
 10 11  2  0
 11 12  1  0
 12 13  1  0
 13 14  2  0
 14 15  1  0
 15 16  2  0
 16 17  1  0
 16 18  1  0
 18 19  2  0
 19 20  1  0
 11 21  1  0
 21 22  2  0
  5 23  2  0
 23 24  1  0
 24 25  1  0
 25 26  1  0
 24 27  2  0
 27 28  1  0
 28 29  1  0
 27  3  1  0
 22  8  1  0
 19 13  1  0
M  END
>  <zinc_id>  (461) 
ZINC000013472739

>  <ortholog_name>  (461) 
DRTS_PLAFK

>  <gene_name>  (461) 
DRTS_PLAFK

>  <affinity>  (461) 
8.89

>  <chembldocid>  (461) 
17636

>  <title>  (461) 
None

>  <reference.pubmed_id>  (461) 
14711307

>  <reference.doi>  (461) 
None

>  <reference.chembl_id>  (461) 
CHEMBL1148379

>  <reference.journal>  (461) 
J. Med. Chem.

>  <reference.year>  (461) 
2004

$$$$

     RDKit          3D

 29 31  0  0  0  0  0  0  0  0999 V2000
   -3.8276    3.2013   -1.6999 C   0  0  0  0  0  0  0  0  0  0  0  0
   -4.9128    2.3586   -1.3690 O   0  0  0  0  0  0  0  0  0  0  0  0
   -4.6600    1.1712   -0.6951 C   0  0  0  0  0  0  0  0  0  0  0  0
   -3.3617    0.8237   -0.3563 C   0  0  0  0  0  0  0  0  0  0  0  0
   -3.0970   -0.3481    0.3107 C   0  0  0  0  0  0  0  0  0  0  0  0
   -1.7176   -0.7905    0.6930 C   0  0  0  0  0  0  0  0  0  0  0  0
   -0.8012   -0.5243   -0.3516 O   0  0  0  0  0  0  0  0  0  0  0  0
    0.5455   -0.8195   -0.3191 C   0  0  0  0  0  0  0  0  0  0  0  0
    1.1967   -1.4171    0.7345 C   0  0  0  0  0  0  0  0  0  0  0  0
    2.5723   -1.6685    0.6502 C   0  0  0  0  0  0  0  0  0  0  0  0
    3.2883   -1.3237   -0.4803 C   0  0  0  0  0  0  0  0  0  0  0  0
    4.7442   -1.5646   -0.6343 C   0  0  0  0  0  0  0  0  0  0  0  0
    5.4650   -0.3836   -0.1304 C   0  0  0  0  0  0  0  0  0  0  0  0
    6.0383    0.5661   -0.9462 C   0  0  0  0  0  0  0  0  0  0  0  0
    6.6704    1.6039   -0.4004 N   0  0  0  0  0  0  0  0  0  0  0  0
    6.7867    1.7874    0.9253 C   0  0  0  0  0  0  0  0  0  0  0  0
    7.4746    2.9180    1.4401 N   0  0  0  0  0  0  0  0  0  0  0  0
    6.2237    0.8551    1.7343 N   0  0  0  0  0  0  0  0  0  0  0  0
    5.5724   -0.2149    1.2193 C   0  0  0  0  0  0  0  0  0  0  0  0
    5.0097   -1.1485    2.1071 N   0  0  0  0  0  0  0  0  0  0  0  0
    2.6358   -0.7281   -1.5271 C   0  0  0  0  0  0  0  0  0  0  0  0
    1.2863   -0.4865   -1.4334 C   0  0  0  0  0  0  0  0  0  0  0  0
   -4.1598   -1.1659    0.6324 C   0  0  0  0  0  0  0  0  0  0  0  0
   -5.4679   -0.8139    0.2896 C   0  0  0  0  0  0  0  0  0  0  0  0
   -6.5416   -1.6310    0.6082 O   0  0  0  0  0  0  0  0  0  0  0  0
   -6.3661   -2.8494    1.3074 C   0  0  0  0  0  0  0  0  0  0  0  0
   -5.7386    0.3585   -0.3787 C   0  0  0  0  0  0  0  0  0  0  0  0
   -7.0381    0.7287   -0.7297 O   0  0  0  0  0  0  0  0  0  0  0  0
   -7.8198    1.5059    0.1845 C   0  0  0  0  0  0  0  0  0  0  0  0
  1  2  1  0
  2  3  1  0
  3  4  2  0
  4  5  1  0
  5  6  1  0
  6  7  1  0
  7  8  1  0
  8  9  2  0
  9 10  1  0
 10 11  2  0
 11 12  1  0
 12 13  1  0
 13 14  2  0
 14 15  1  0
 15 16  2  0
 16 17  1  0
 16 18  1  0
 18 19  2  0
 19 20  1  0
 11 21  1  0
 21 22  2  0
  5 23  2  0
 23 24  1  0
 24 25  1  0
 25 26  1  0
 24 27  2  0
 27 28  1  0
 28 29  1  0
 27  3  1  0
 22  8  1  0
 19 13  1  0
M  END
>  <zinc_id>  (462) 
ZINC000013472739

>  <ortholog_name>  (462) 
DRTS_PLAFK

>  <gene_name>  (462) 
DRTS_PLAFK

>  <affinity>  (462) 
7.00

>  <chembldocid>  (462) 
17636

>  <title>  (462) 
None

>  <reference.pubmed_id>  (462) 
14711307

>  <reference.doi>  (462) 
None

>  <reference.chembl_id>  (462) 
CHEMBL1148379

>  <reference.journal>  (462) 
J. Med. Chem.

>  <reference.year>  (462) 
2004

$$$$

     RDKit          3D

 29 31  0  0  0  0  0  0  0  0999 V2000
   -3.8276    3.2013   -1.6999 C   0  0  0  0  0  0  0  0  0  0  0  0
   -4.9128    2.3586   -1.3690 O   0  0  0  0  0  0  0  0  0  0  0  0
   -4.6600    1.1712   -0.6951 C   0  0  0  0  0  0  0  0  0  0  0  0
   -3.3617    0.8237   -0.3563 C   0  0  0  0  0  0  0  0  0  0  0  0
   -3.0970   -0.3481    0.3107 C   0  0  0  0  0  0  0  0  0  0  0  0
   -1.7176   -0.7905    0.6930 C   0  0  0  0  0  0  0  0  0  0  0  0
   -0.8012   -0.5243   -0.3516 O   0  0  0  0  0  0  0  0  0  0  0  0
    0.5455   -0.8195   -0.3191 C   0  0  0  0  0  0  0  0  0  0  0  0
    1.1967   -1.4171    0.7345 C   0  0  0  0  0  0  0  0  0  0  0  0
    2.5723   -1.6685    0.6502 C   0  0  0  0  0  0  0  0  0  0  0  0
    3.2883   -1.3237   -0.4803 C   0  0  0  0  0  0  0  0  0  0  0  0
    4.7442   -1.5646   -0.6343 C   0  0  0  0  0  0  0  0  0  0  0  0
    5.4650   -0.3836   -0.1304 C   0  0  0  0  0  0  0  0  0  0  0  0
    6.0383    0.5661   -0.9462 C   0  0  0  0  0  0  0  0  0  0  0  0
    6.6704    1.6039   -0.4004 N   0  0  0  0  0  0  0  0  0  0  0  0
    6.7867    1.7874    0.9253 C   0  0  0  0  0  0  0  0  0  0  0  0
    7.4746    2.9180    1.4401 N   0  0  0  0  0  0  0  0  0  0  0  0
    6.2237    0.8551    1.7343 N   0  0  0  0  0  0  0  0  0  0  0  0
    5.5724   -0.2149    1.2193 C   0  0  0  0  0  0  0  0  0  0  0  0
    5.0097   -1.1485    2.1071 N   0  0  0  0  0  0  0  0  0  0  0  0
    2.6358   -0.7281   -1.5271 C   0  0  0  0  0  0  0  0  0  0  0  0
    1.2863   -0.4865   -1.4334 C   0  0  0  0  0  0  0  0  0  0  0  0
   -4.1598   -1.1659    0.6324 C   0  0  0  0  0  0  0  0  0  0  0  0
   -5.4679   -0.8139    0.2896 C   0  0  0  0  0  0  0  0  0  0  0  0
   -6.5416   -1.6310    0.6082 O   0  0  0  0  0  0  0  0  0  0  0  0
   -6.3661   -2.8494    1.3074 C   0  0  0  0  0  0  0  0  0  0  0  0
   -5.7386    0.3585   -0.3787 C   0  0  0  0  0  0  0  0  0  0  0  0
   -7.0381    0.7287   -0.7297 O   0  0  0  0  0  0  0  0  0  0  0  0
   -7.8198    1.5059    0.1845 C   0  0  0  0  0  0  0  0  0  0  0  0
  1  2  1  0
  2  3  1  0
  3  4  2  0
  4  5  1  0
  5  6  1  0
  6  7  1  0
  7  8  1  0
  8  9  2  0
  9 10  1  0
 10 11  2  0
 11 12  1  0
 12 13  1  0
 13 14  2  0
 14 15  1  0
 15 16  2  0
 16 17  1  0
 16 18  1  0
 18 19  2  0
 19 20  1  0
 11 21  1  0
 21 22  2  0
  5 23  2  0
 23 24  1  0
 24 25  1  0
 25 26  1  0
 24 27  2  0
 27 28  1  0
 28 29  1  0
 27  3  1  0
 22  8  1  0
 19 13  1  0
M  END
>  <zinc_id>  (463) 
ZINC000013472739

>  <ortholog_name>  (463) 
DRTS_PLAFK

>  <gene_name>  (463) 
DRTS_PLAFK

>  <affinity>  (463) 
6.96

>  <chembldocid>  (463) 
17636

>  <title>  (463) 
None

>  <reference.pubmed_id>  (463) 
14711307

>  <reference.doi>  (463) 
None

>  <reference.chembl_id>  (463) 
CHEMBL1148379

>  <reference.journal>  (463) 
J. Med. Chem.

>  <reference.year>  (463) 
2004

$$$$

     RDKit          3D

 29 31  0  0  0  0  0  0  0  0999 V2000
   -3.8276    3.2013   -1.6999 C   0  0  0  0  0  0  0  0  0  0  0  0
   -4.9128    2.3586   -1.3690 O   0  0  0  0  0  0  0  0  0  0  0  0
   -4.6600    1.1712   -0.6951 C   0  0  0  0  0  0  0  0  0  0  0  0
   -3.3617    0.8237   -0.3563 C   0  0  0  0  0  0  0  0  0  0  0  0
   -3.0970   -0.3481    0.3107 C   0  0  0  0  0  0  0  0  0  0  0  0
   -1.7176   -0.7905    0.6930 C   0  0  0  0  0  0  0  0  0  0  0  0
   -0.8012   -0.5243   -0.3516 O   0  0  0  0  0  0  0  0  0  0  0  0
    0.5455   -0.8195   -0.3191 C   0  0  0  0  0  0  0  0  0  0  0  0
    1.1967   -1.4171    0.7345 C   0  0  0  0  0  0  0  0  0  0  0  0
    2.5723   -1.6685    0.6502 C   0  0  0  0  0  0  0  0  0  0  0  0
    3.2883   -1.3237   -0.4803 C   0  0  0  0  0  0  0  0  0  0  0  0
    4.7442   -1.5646   -0.6343 C   0  0  0  0  0  0  0  0  0  0  0  0
    5.4650   -0.3836   -0.1304 C   0  0  0  0  0  0  0  0  0  0  0  0
    6.0383    0.5661   -0.9462 C   0  0  0  0  0  0  0  0  0  0  0  0
    6.6704    1.6039   -0.4004 N   0  0  0  0  0  0  0  0  0  0  0  0
    6.7867    1.7874    0.9253 C   0  0  0  0  0  0  0  0  0  0  0  0
    7.4746    2.9180    1.4401 N   0  0  0  0  0  0  0  0  0  0  0  0
    6.2237    0.8551    1.7343 N   0  0  0  0  0  0  0  0  0  0  0  0
    5.5724   -0.2149    1.2193 C   0  0  0  0  0  0  0  0  0  0  0  0
    5.0097   -1.1485    2.1071 N   0  0  0  0  0  0  0  0  0  0  0  0
    2.6358   -0.7281   -1.5271 C   0  0  0  0  0  0  0  0  0  0  0  0
    1.2863   -0.4865   -1.4334 C   0  0  0  0  0  0  0  0  0  0  0  0
   -4.1598   -1.1659    0.6324 C   0  0  0  0  0  0  0  0  0  0  0  0
   -5.4679   -0.8139    0.2896 C   0  0  0  0  0  0  0  0  0  0  0  0
   -6.5416   -1.6310    0.6082 O   0  0  0  0  0  0  0  0  0  0  0  0
   -6.3661   -2.8494    1.3074 C   0  0  0  0  0  0  0  0  0  0  0  0
   -5.7386    0.3585   -0.3787 C   0  0  0  0  0  0  0  0  0  0  0  0
   -7.0381    0.7287   -0.7297 O   0  0  0  0  0  0  0  0  0  0  0  0
   -7.8198    1.5059    0.1845 C   0  0  0  0  0  0  0  0  0  0  0  0
  1  2  1  0
  2  3  1  0
  3  4  2  0
  4  5  1  0
  5  6  1  0
  6  7  1  0
  7  8  1  0
  8  9  2  0
  9 10  1  0
 10 11  2  0
 11 12  1  0
 12 13  1  0
 13 14  2  0
 14 15  1  0
 15 16  2  0
 16 17  1  0
 16 18  1  0
 18 19  2  0
 19 20  1  0
 11 21  1  0
 21 22  2  0
  5 23  2  0
 23 24  1  0
 24 25  1  0
 25 26  1  0
 24 27  2  0
 27 28  1  0
 28 29  1  0
 27  3  1  0
 22  8  1  0
 19 13  1  0
M  END
>  <zinc_id>  (464) 
ZINC000013472739

>  <ortholog_name>  (464) 
DRTS_PLAFK

>  <gene_name>  (464) 
DRTS_PLAFK

>  <affinity>  (464) 
6.82

>  <chembldocid>  (464) 
17636

>  <title>  (464) 
None

>  <reference.pubmed_id>  (464) 
14711307

>  <reference.doi>  (464) 
None

>  <reference.chembl_id>  (464) 
CHEMBL1148379

>  <reference.journal>  (464) 
J. Med. Chem.

>  <reference.year>  (464) 
2004

$$$$

     RDKit          3D

 29 31  0  0  0  0  0  0  0  0999 V2000
   -3.8276    3.2013   -1.6999 C   0  0  0  0  0  0  0  0  0  0  0  0
   -4.9128    2.3586   -1.3690 O   0  0  0  0  0  0  0  0  0  0  0  0
   -4.6600    1.1712   -0.6951 C   0  0  0  0  0  0  0  0  0  0  0  0
   -3.3617    0.8237   -0.3563 C   0  0  0  0  0  0  0  0  0  0  0  0
   -3.0970   -0.3481    0.3107 C   0  0  0  0  0  0  0  0  0  0  0  0
   -1.7176   -0.7905    0.6930 C   0  0  0  0  0  0  0  0  0  0  0  0
   -0.8012   -0.5243   -0.3516 O   0  0  0  0  0  0  0  0  0  0  0  0
    0.5455   -0.8195   -0.3191 C   0  0  0  0  0  0  0  0  0  0  0  0
    1.1967   -1.4171    0.7345 C   0  0  0  0  0  0  0  0  0  0  0  0
    2.5723   -1.6685    0.6502 C   0  0  0  0  0  0  0  0  0  0  0  0
    3.2883   -1.3237   -0.4803 C   0  0  0  0  0  0  0  0  0  0  0  0
    4.7442   -1.5646   -0.6343 C   0  0  0  0  0  0  0  0  0  0  0  0
    5.4650   -0.3836   -0.1304 C   0  0  0  0  0  0  0  0  0  0  0  0
    6.0383    0.5661   -0.9462 C   0  0  0  0  0  0  0  0  0  0  0  0
    6.6704    1.6039   -0.4004 N   0  0  0  0  0  0  0  0  0  0  0  0
    6.7867    1.7874    0.9253 C   0  0  0  0  0  0  0  0  0  0  0  0
    7.4746    2.9180    1.4401 N   0  0  0  0  0  0  0  0  0  0  0  0
    6.2237    0.8551    1.7343 N   0  0  0  0  0  0  0  0  0  0  0  0
    5.5724   -0.2149    1.2193 C   0  0  0  0  0  0  0  0  0  0  0  0
    5.0097   -1.1485    2.1071 N   0  0  0  0  0  0  0  0  0  0  0  0
    2.6358   -0.7281   -1.5271 C   0  0  0  0  0  0  0  0  0  0  0  0
    1.2863   -0.4865   -1.4334 C   0  0  0  0  0  0  0  0  0  0  0  0
   -4.1598   -1.1659    0.6324 C   0  0  0  0  0  0  0  0  0  0  0  0
   -5.4679   -0.8139    0.2896 C   0  0  0  0  0  0  0  0  0  0  0  0
   -6.5416   -1.6310    0.6082 O   0  0  0  0  0  0  0  0  0  0  0  0
   -6.3661   -2.8494    1.3074 C   0  0  0  0  0  0  0  0  0  0  0  0
   -5.7386    0.3585   -0.3787 C   0  0  0  0  0  0  0  0  0  0  0  0
   -7.0381    0.7287   -0.7297 O   0  0  0  0  0  0  0  0  0  0  0  0
   -7.8198    1.5059    0.1845 C   0  0  0  0  0  0  0  0  0  0  0  0
  1  2  1  0
  2  3  1  0
  3  4  2  0
  4  5  1  0
  5  6  1  0
  6  7  1  0
  7  8  1  0
  8  9  2  0
  9 10  1  0
 10 11  2  0
 11 12  1  0
 12 13  1  0
 13 14  2  0
 14 15  1  0
 15 16  2  0
 16 17  1  0
 16 18  1  0
 18 19  2  0
 19 20  1  0
 11 21  1  0
 21 22  2  0
  5 23  2  0
 23 24  1  0
 24 25  1  0
 25 26  1  0
 24 27  2  0
 27 28  1  0
 28 29  1  0
 27  3  1  0
 22  8  1  0
 19 13  1  0
M  END
>  <zinc_id>  (465) 
ZINC000013472739

>  <ortholog_name>  (465) 
DRTS_PLAFK

>  <gene_name>  (465) 
DRTS_PLAFK

>  <affinity>  (465) 
6.77

>  <chembldocid>  (465) 
17636

>  <title>  (465) 
None

>  <reference.pubmed_id>  (465) 
14711307

>  <reference.doi>  (465) 
None

>  <reference.chembl_id>  (465) 
CHEMBL1148379

>  <reference.journal>  (465) 
J. Med. Chem.

>  <reference.year>  (465) 
2004

$$$$

     RDKit          3D

 29 31  0  0  0  0  0  0  0  0999 V2000
   -3.8276    3.2013   -1.6999 C   0  0  0  0  0  0  0  0  0  0  0  0
   -4.9128    2.3586   -1.3690 O   0  0  0  0  0  0  0  0  0  0  0  0
   -4.6600    1.1712   -0.6951 C   0  0  0  0  0  0  0  0  0  0  0  0
   -3.3617    0.8237   -0.3563 C   0  0  0  0  0  0  0  0  0  0  0  0
   -3.0970   -0.3481    0.3107 C   0  0  0  0  0  0  0  0  0  0  0  0
   -1.7176   -0.7905    0.6930 C   0  0  0  0  0  0  0  0  0  0  0  0
   -0.8012   -0.5243   -0.3516 O   0  0  0  0  0  0  0  0  0  0  0  0
    0.5455   -0.8195   -0.3191 C   0  0  0  0  0  0  0  0  0  0  0  0
    1.1967   -1.4171    0.7345 C   0  0  0  0  0  0  0  0  0  0  0  0
    2.5723   -1.6685    0.6502 C   0  0  0  0  0  0  0  0  0  0  0  0
    3.2883   -1.3237   -0.4803 C   0  0  0  0  0  0  0  0  0  0  0  0
    4.7442   -1.5646   -0.6343 C   0  0  0  0  0  0  0  0  0  0  0  0
    5.4650   -0.3836   -0.1304 C   0  0  0  0  0  0  0  0  0  0  0  0
    6.0383    0.5661   -0.9462 C   0  0  0  0  0  0  0  0  0  0  0  0
    6.6704    1.6039   -0.4004 N   0  0  0  0  0  0  0  0  0  0  0  0
    6.7867    1.7874    0.9253 C   0  0  0  0  0  0  0  0  0  0  0  0
    7.4746    2.9180    1.4401 N   0  0  0  0  0  0  0  0  0  0  0  0
    6.2237    0.8551    1.7343 N   0  0  0  0  0  0  0  0  0  0  0  0
    5.5724   -0.2149    1.2193 C   0  0  0  0  0  0  0  0  0  0  0  0
    5.0097   -1.1485    2.1071 N   0  0  0  0  0  0  0  0  0  0  0  0
    2.6358   -0.7281   -1.5271 C   0  0  0  0  0  0  0  0  0  0  0  0
    1.2863   -0.4865   -1.4334 C   0  0  0  0  0  0  0  0  0  0  0  0
   -4.1598   -1.1659    0.6324 C   0  0  0  0  0  0  0  0  0  0  0  0
   -5.4679   -0.8139    0.2896 C   0  0  0  0  0  0  0  0  0  0  0  0
   -6.5416   -1.6310    0.6082 O   0  0  0  0  0  0  0  0  0  0  0  0
   -6.3661   -2.8494    1.3074 C   0  0  0  0  0  0  0  0  0  0  0  0
   -5.7386    0.3585   -0.3787 C   0  0  0  0  0  0  0  0  0  0  0  0
   -7.0381    0.7287   -0.7297 O   0  0  0  0  0  0  0  0  0  0  0  0
   -7.8198    1.5059    0.1845 C   0  0  0  0  0  0  0  0  0  0  0  0
  1  2  1  0
  2  3  1  0
  3  4  2  0
  4  5  1  0
  5  6  1  0
  6  7  1  0
  7  8  1  0
  8  9  2  0
  9 10  1  0
 10 11  2  0
 11 12  1  0
 12 13  1  0
 13 14  2  0
 14 15  1  0
 15 16  2  0
 16 17  1  0
 16 18  1  0
 18 19  2  0
 19 20  1  0
 11 21  1  0
 21 22  2  0
  5 23  2  0
 23 24  1  0
 24 25  1  0
 25 26  1  0
 24 27  2  0
 27 28  1  0
 28 29  1  0
 27  3  1  0
 22  8  1  0
 19 13  1  0
M  END
>  <zinc_id>  (466) 
ZINC000013472739

>  <ortholog_name>  (466) 
DRTS_PLAFK

>  <gene_name>  (466) 
DRTS_PLAFK

>  <affinity>  (466) 
8.48

>  <chembldocid>  (466) 
16871

>  <title>  (466) 
None

>  <reference.pubmed_id>  (466) 
11881993

>  <reference.doi>  (466) 
None

>  <reference.chembl_id>  (466) 
CHEMBL1135602

>  <reference.journal>  (466) 
J. Med. Chem.

>  <reference.year>  (466) 
2002

$$$$

     RDKit          3D

 29 31  0  0  0  0  0  0  0  0999 V2000
   -3.8276    3.2013   -1.6999 C   0  0  0  0  0  0  0  0  0  0  0  0
   -4.9128    2.3586   -1.3690 O   0  0  0  0  0  0  0  0  0  0  0  0
   -4.6600    1.1712   -0.6951 C   0  0  0  0  0  0  0  0  0  0  0  0
   -3.3617    0.8237   -0.3563 C   0  0  0  0  0  0  0  0  0  0  0  0
   -3.0970   -0.3481    0.3107 C   0  0  0  0  0  0  0  0  0  0  0  0
   -1.7176   -0.7905    0.6930 C   0  0  0  0  0  0  0  0  0  0  0  0
   -0.8012   -0.5243   -0.3516 O   0  0  0  0  0  0  0  0  0  0  0  0
    0.5455   -0.8195   -0.3191 C   0  0  0  0  0  0  0  0  0  0  0  0
    1.1967   -1.4171    0.7345 C   0  0  0  0  0  0  0  0  0  0  0  0
    2.5723   -1.6685    0.6502 C   0  0  0  0  0  0  0  0  0  0  0  0
    3.2883   -1.3237   -0.4803 C   0  0  0  0  0  0  0  0  0  0  0  0
    4.7442   -1.5646   -0.6343 C   0  0  0  0  0  0  0  0  0  0  0  0
    5.4650   -0.3836   -0.1304 C   0  0  0  0  0  0  0  0  0  0  0  0
    6.0383    0.5661   -0.9462 C   0  0  0  0  0  0  0  0  0  0  0  0
    6.6704    1.6039   -0.4004 N   0  0  0  0  0  0  0  0  0  0  0  0
    6.7867    1.7874    0.9253 C   0  0  0  0  0  0  0  0  0  0  0  0
    7.4746    2.9180    1.4401 N   0  0  0  0  0  0  0  0  0  0  0  0
    6.2237    0.8551    1.7343 N   0  0  0  0  0  0  0  0  0  0  0  0
    5.5724   -0.2149    1.2193 C   0  0  0  0  0  0  0  0  0  0  0  0
    5.0097   -1.1485    2.1071 N   0  0  0  0  0  0  0  0  0  0  0  0
    2.6358   -0.7281   -1.5271 C   0  0  0  0  0  0  0  0  0  0  0  0
    1.2863   -0.4865   -1.4334 C   0  0  0  0  0  0  0  0  0  0  0  0
   -4.1598   -1.1659    0.6324 C   0  0  0  0  0  0  0  0  0  0  0  0
   -5.4679   -0.8139    0.2896 C   0  0  0  0  0  0  0  0  0  0  0  0
   -6.5416   -1.6310    0.6082 O   0  0  0  0  0  0  0  0  0  0  0  0
   -6.3661   -2.8494    1.3074 C   0  0  0  0  0  0  0  0  0  0  0  0
   -5.7386    0.3585   -0.3787 C   0  0  0  0  0  0  0  0  0  0  0  0
   -7.0381    0.7287   -0.7297 O   0  0  0  0  0  0  0  0  0  0  0  0
   -7.8198    1.5059    0.1845 C   0  0  0  0  0  0  0  0  0  0  0  0
  1  2  1  0
  2  3  1  0
  3  4  2  0
  4  5  1  0
  5  6  1  0
  6  7  1  0
  7  8  1  0
  8  9  2  0
  9 10  1  0
 10 11  2  0
 11 12  1  0
 12 13  1  0
 13 14  2  0
 14 15  1  0
 15 16  2  0
 16 17  1  0
 16 18  1  0
 18 19  2  0
 19 20  1  0
 11 21  1  0
 21 22  2  0
  5 23  2  0
 23 24  1  0
 24 25  1  0
 25 26  1  0
 24 27  2  0
 27 28  1  0
 28 29  1  0
 27  3  1  0
 22  8  1  0
 19 13  1  0
M  END
>  <zinc_id>  (467) 
ZINC000013472739

>  <ortholog_name>  (467) 
DRTS_PLAFK

>  <gene_name>  (467) 
DRTS_PLAFK

>  <affinity>  (467) 
8.28

>  <chembldocid>  (467) 
16871

>  <title>  (467) 
None

>  <reference.pubmed_id>  (467) 
11881993

>  <reference.doi>  (467) 
None

>  <reference.chembl_id>  (467) 
CHEMBL1135602

>  <reference.journal>  (467) 
J. Med. Chem.

>  <reference.year>  (467) 
2002

$$$$

     RDKit          3D

 29 31  0  0  0  0  0  0  0  0999 V2000
   -3.8276    3.2013   -1.6999 C   0  0  0  0  0  0  0  0  0  0  0  0
   -4.9128    2.3586   -1.3690 O   0  0  0  0  0  0  0  0  0  0  0  0
   -4.6600    1.1712   -0.6951 C   0  0  0  0  0  0  0  0  0  0  0  0
   -3.3617    0.8237   -0.3563 C   0  0  0  0  0  0  0  0  0  0  0  0
   -3.0970   -0.3481    0.3107 C   0  0  0  0  0  0  0  0  0  0  0  0
   -1.7176   -0.7905    0.6930 C   0  0  0  0  0  0  0  0  0  0  0  0
   -0.8012   -0.5243   -0.3516 O   0  0  0  0  0  0  0  0  0  0  0  0
    0.5455   -0.8195   -0.3191 C   0  0  0  0  0  0  0  0  0  0  0  0
    1.1967   -1.4171    0.7345 C   0  0  0  0  0  0  0  0  0  0  0  0
    2.5723   -1.6685    0.6502 C   0  0  0  0  0  0  0  0  0  0  0  0
    3.2883   -1.3237   -0.4803 C   0  0  0  0  0  0  0  0  0  0  0  0
    4.7442   -1.5646   -0.6343 C   0  0  0  0  0  0  0  0  0  0  0  0
    5.4650   -0.3836   -0.1304 C   0  0  0  0  0  0  0  0  0  0  0  0
    6.0383    0.5661   -0.9462 C   0  0  0  0  0  0  0  0  0  0  0  0
    6.6704    1.6039   -0.4004 N   0  0  0  0  0  0  0  0  0  0  0  0
    6.7867    1.7874    0.9253 C   0  0  0  0  0  0  0  0  0  0  0  0
    7.4746    2.9180    1.4401 N   0  0  0  0  0  0  0  0  0  0  0  0
    6.2237    0.8551    1.7343 N   0  0  0  0  0  0  0  0  0  0  0  0
    5.5724   -0.2149    1.2193 C   0  0  0  0  0  0  0  0  0  0  0  0
    5.0097   -1.1485    2.1071 N   0  0  0  0  0  0  0  0  0  0  0  0
    2.6358   -0.7281   -1.5271 C   0  0  0  0  0  0  0  0  0  0  0  0
    1.2863   -0.4865   -1.4334 C   0  0  0  0  0  0  0  0  0  0  0  0
   -4.1598   -1.1659    0.6324 C   0  0  0  0  0  0  0  0  0  0  0  0
   -5.4679   -0.8139    0.2896 C   0  0  0  0  0  0  0  0  0  0  0  0
   -6.5416   -1.6310    0.6082 O   0  0  0  0  0  0  0  0  0  0  0  0
   -6.3661   -2.8494    1.3074 C   0  0  0  0  0  0  0  0  0  0  0  0
   -5.7386    0.3585   -0.3787 C   0  0  0  0  0  0  0  0  0  0  0  0
   -7.0381    0.7287   -0.7297 O   0  0  0  0  0  0  0  0  0  0  0  0
   -7.8198    1.5059    0.1845 C   0  0  0  0  0  0  0  0  0  0  0  0
  1  2  1  0
  2  3  1  0
  3  4  2  0
  4  5  1  0
  5  6  1  0
  6  7  1  0
  7  8  1  0
  8  9  2  0
  9 10  1  0
 10 11  2  0
 11 12  1  0
 12 13  1  0
 13 14  2  0
 14 15  1  0
 15 16  2  0
 16 17  1  0
 16 18  1  0
 18 19  2  0
 19 20  1  0
 11 21  1  0
 21 22  2  0
  5 23  2  0
 23 24  1  0
 24 25  1  0
 25 26  1  0
 24 27  2  0
 27 28  1  0
 28 29  1  0
 27  3  1  0
 22  8  1  0
 19 13  1  0
M  END
>  <zinc_id>  (468) 
ZINC000013472739

>  <ortholog_name>  (468) 
DRTS_PLAFK

>  <gene_name>  (468) 
DRTS_PLAFK

>  <affinity>  (468) 
8.28

>  <chembldocid>  (468) 
17636

>  <title>  (468) 
None

>  <reference.pubmed_id>  (468) 
14711307

>  <reference.doi>  (468) 
None

>  <reference.chembl_id>  (468) 
CHEMBL1148379

>  <reference.journal>  (468) 
J. Med. Chem.

>  <reference.year>  (468) 
2004

$$$$

     RDKit          3D

 29 31  0  0  0  0  0  0  0  0999 V2000
   -3.8276    3.2013   -1.6999 C   0  0  0  0  0  0  0  0  0  0  0  0
   -4.9128    2.3586   -1.3690 O   0  0  0  0  0  0  0  0  0  0  0  0
   -4.6600    1.1712   -0.6951 C   0  0  0  0  0  0  0  0  0  0  0  0
   -3.3617    0.8237   -0.3563 C   0  0  0  0  0  0  0  0  0  0  0  0
   -3.0970   -0.3481    0.3107 C   0  0  0  0  0  0  0  0  0  0  0  0
   -1.7176   -0.7905    0.6930 C   0  0  0  0  0  0  0  0  0  0  0  0
   -0.8012   -0.5243   -0.3516 O   0  0  0  0  0  0  0  0  0  0  0  0
    0.5455   -0.8195   -0.3191 C   0  0  0  0  0  0  0  0  0  0  0  0
    1.1967   -1.4171    0.7345 C   0  0  0  0  0  0  0  0  0  0  0  0
    2.5723   -1.6685    0.6502 C   0  0  0  0  0  0  0  0  0  0  0  0
    3.2883   -1.3237   -0.4803 C   0  0  0  0  0  0  0  0  0  0  0  0
    4.7442   -1.5646   -0.6343 C   0  0  0  0  0  0  0  0  0  0  0  0
    5.4650   -0.3836   -0.1304 C   0  0  0  0  0  0  0  0  0  0  0  0
    6.0383    0.5661   -0.9462 C   0  0  0  0  0  0  0  0  0  0  0  0
    6.6704    1.6039   -0.4004 N   0  0  0  0  0  0  0  0  0  0  0  0
    6.7867    1.7874    0.9253 C   0  0  0  0  0  0  0  0  0  0  0  0
    7.4746    2.9180    1.4401 N   0  0  0  0  0  0  0  0  0  0  0  0
    6.2237    0.8551    1.7343 N   0  0  0  0  0  0  0  0  0  0  0  0
    5.5724   -0.2149    1.2193 C   0  0  0  0  0  0  0  0  0  0  0  0
    5.0097   -1.1485    2.1071 N   0  0  0  0  0  0  0  0  0  0  0  0
    2.6358   -0.7281   -1.5271 C   0  0  0  0  0  0  0  0  0  0  0  0
    1.2863   -0.4865   -1.4334 C   0  0  0  0  0  0  0  0  0  0  0  0
   -4.1598   -1.1659    0.6324 C   0  0  0  0  0  0  0  0  0  0  0  0
   -5.4679   -0.8139    0.2896 C   0  0  0  0  0  0  0  0  0  0  0  0
   -6.5416   -1.6310    0.6082 O   0  0  0  0  0  0  0  0  0  0  0  0
   -6.3661   -2.8494    1.3074 C   0  0  0  0  0  0  0  0  0  0  0  0
   -5.7386    0.3585   -0.3787 C   0  0  0  0  0  0  0  0  0  0  0  0
   -7.0381    0.7287   -0.7297 O   0  0  0  0  0  0  0  0  0  0  0  0
   -7.8198    1.5059    0.1845 C   0  0  0  0  0  0  0  0  0  0  0  0
  1  2  1  0
  2  3  1  0
  3  4  2  0
  4  5  1  0
  5  6  1  0
  6  7  1  0
  7  8  1  0
  8  9  2  0
  9 10  1  0
 10 11  2  0
 11 12  1  0
 12 13  1  0
 13 14  2  0
 14 15  1  0
 15 16  2  0
 16 17  1  0
 16 18  1  0
 18 19  2  0
 19 20  1  0
 11 21  1  0
 21 22  2  0
  5 23  2  0
 23 24  1  0
 24 25  1  0
 25 26  1  0
 24 27  2  0
 27 28  1  0
 28 29  1  0
 27  3  1  0
 22  8  1  0
 19 13  1  0
M  END
>  <zinc_id>  (469) 
ZINC000013472739

>  <ortholog_name>  (469) 
DRTS_PLAFK

>  <gene_name>  (469) 
DRTS_PLAFK

>  <affinity>  (469) 
6.29

>  <chembldocid>  (469) 
17636

>  <title>  (469) 
None

>  <reference.pubmed_id>  (469) 
14711307

>  <reference.doi>  (469) 
None

>  <reference.chembl_id>  (469) 
CHEMBL1148379

>  <reference.journal>  (469) 
J. Med. Chem.

>  <reference.year>  (469) 
2004

$$$$

     RDKit          3D

 29 31  0  0  0  0  0  0  0  0999 V2000
   -3.8276    3.2013   -1.6999 C   0  0  0  0  0  0  0  0  0  0  0  0
   -4.9128    2.3586   -1.3690 O   0  0  0  0  0  0  0  0  0  0  0  0
   -4.6600    1.1712   -0.6951 C   0  0  0  0  0  0  0  0  0  0  0  0
   -3.3617    0.8237   -0.3563 C   0  0  0  0  0  0  0  0  0  0  0  0
   -3.0970   -0.3481    0.3107 C   0  0  0  0  0  0  0  0  0  0  0  0
   -1.7176   -0.7905    0.6930 C   0  0  0  0  0  0  0  0  0  0  0  0
   -0.8012   -0.5243   -0.3516 O   0  0  0  0  0  0  0  0  0  0  0  0
    0.5455   -0.8195   -0.3191 C   0  0  0  0  0  0  0  0  0  0  0  0
    1.1967   -1.4171    0.7345 C   0  0  0  0  0  0  0  0  0  0  0  0
    2.5723   -1.6685    0.6502 C   0  0  0  0  0  0  0  0  0  0  0  0
    3.2883   -1.3237   -0.4803 C   0  0  0  0  0  0  0  0  0  0  0  0
    4.7442   -1.5646   -0.6343 C   0  0  0  0  0  0  0  0  0  0  0  0
    5.4650   -0.3836   -0.1304 C   0  0  0  0  0  0  0  0  0  0  0  0
    6.0383    0.5661   -0.9462 C   0  0  0  0  0  0  0  0  0  0  0  0
    6.6704    1.6039   -0.4004 N   0  0  0  0  0  0  0  0  0  0  0  0
    6.7867    1.7874    0.9253 C   0  0  0  0  0  0  0  0  0  0  0  0
    7.4746    2.9180    1.4401 N   0  0  0  0  0  0  0  0  0  0  0  0
    6.2237    0.8551    1.7343 N   0  0  0  0  0  0  0  0  0  0  0  0
    5.5724   -0.2149    1.2193 C   0  0  0  0  0  0  0  0  0  0  0  0
    5.0097   -1.1485    2.1071 N   0  0  0  0  0  0  0  0  0  0  0  0
    2.6358   -0.7281   -1.5271 C   0  0  0  0  0  0  0  0  0  0  0  0
    1.2863   -0.4865   -1.4334 C   0  0  0  0  0  0  0  0  0  0  0  0
   -4.1598   -1.1659    0.6324 C   0  0  0  0  0  0  0  0  0  0  0  0
   -5.4679   -0.8139    0.2896 C   0  0  0  0  0  0  0  0  0  0  0  0
   -6.5416   -1.6310    0.6082 O   0  0  0  0  0  0  0  0  0  0  0  0
   -6.3661   -2.8494    1.3074 C   0  0  0  0  0  0  0  0  0  0  0  0
   -5.7386    0.3585   -0.3787 C   0  0  0  0  0  0  0  0  0  0  0  0
   -7.0381    0.7287   -0.7297 O   0  0  0  0  0  0  0  0  0  0  0  0
   -7.8198    1.5059    0.1845 C   0  0  0  0  0  0  0  0  0  0  0  0
  1  2  1  0
  2  3  1  0
  3  4  2  0
  4  5  1  0
  5  6  1  0
  6  7  1  0
  7  8  1  0
  8  9  2  0
  9 10  1  0
 10 11  2  0
 11 12  1  0
 12 13  1  0
 13 14  2  0
 14 15  1  0
 15 16  2  0
 16 17  1  0
 16 18  1  0
 18 19  2  0
 19 20  1  0
 11 21  1  0
 21 22  2  0
  5 23  2  0
 23 24  1  0
 24 25  1  0
 25 26  1  0
 24 27  2  0
 27 28  1  0
 28 29  1  0
 27  3  1  0
 22  8  1  0
 19 13  1  0
M  END
>  <zinc_id>  (470) 
ZINC000013472739

>  <ortholog_name>  (470) 
DRTS_PLAFK

>  <gene_name>  (470) 
DRTS_PLAFK

>  <affinity>  (470) 
6.17

>  <chembldocid>  (470) 
17636

>  <title>  (470) 
None

>  <reference.pubmed_id>  (470) 
14711307

>  <reference.doi>  (470) 
None

>  <reference.chembl_id>  (470) 
CHEMBL1148379

>  <reference.journal>  (470) 
J. Med. Chem.

>  <reference.year>  (470) 
2004

$$$$

     RDKit          3D

 29 31  0  0  0  0  0  0  0  0999 V2000
   -3.8276    3.2013   -1.6999 C   0  0  0  0  0  0  0  0  0  0  0  0
   -4.9128    2.3586   -1.3690 O   0  0  0  0  0  0  0  0  0  0  0  0
   -4.6600    1.1712   -0.6951 C   0  0  0  0  0  0  0  0  0  0  0  0
   -3.3617    0.8237   -0.3563 C   0  0  0  0  0  0  0  0  0  0  0  0
   -3.0970   -0.3481    0.3107 C   0  0  0  0  0  0  0  0  0  0  0  0
   -1.7176   -0.7905    0.6930 C   0  0  0  0  0  0  0  0  0  0  0  0
   -0.8012   -0.5243   -0.3516 O   0  0  0  0  0  0  0  0  0  0  0  0
    0.5455   -0.8195   -0.3191 C   0  0  0  0  0  0  0  0  0  0  0  0
    1.1967   -1.4171    0.7345 C   0  0  0  0  0  0  0  0  0  0  0  0
    2.5723   -1.6685    0.6502 C   0  0  0  0  0  0  0  0  0  0  0  0
    3.2883   -1.3237   -0.4803 C   0  0  0  0  0  0  0  0  0  0  0  0
    4.7442   -1.5646   -0.6343 C   0  0  0  0  0  0  0  0  0  0  0  0
    5.4650   -0.3836   -0.1304 C   0  0  0  0  0  0  0  0  0  0  0  0
    6.0383    0.5661   -0.9462 C   0  0  0  0  0  0  0  0  0  0  0  0
    6.6704    1.6039   -0.4004 N   0  0  0  0  0  0  0  0  0  0  0  0
    6.7867    1.7874    0.9253 C   0  0  0  0  0  0  0  0  0  0  0  0
    7.4746    2.9180    1.4401 N   0  0  0  0  0  0  0  0  0  0  0  0
    6.2237    0.8551    1.7343 N   0  0  0  0  0  0  0  0  0  0  0  0
    5.5724   -0.2149    1.2193 C   0  0  0  0  0  0  0  0  0  0  0  0
    5.0097   -1.1485    2.1071 N   0  0  0  0  0  0  0  0  0  0  0  0
    2.6358   -0.7281   -1.5271 C   0  0  0  0  0  0  0  0  0  0  0  0
    1.2863   -0.4865   -1.4334 C   0  0  0  0  0  0  0  0  0  0  0  0
   -4.1598   -1.1659    0.6324 C   0  0  0  0  0  0  0  0  0  0  0  0
   -5.4679   -0.8139    0.2896 C   0  0  0  0  0  0  0  0  0  0  0  0
   -6.5416   -1.6310    0.6082 O   0  0  0  0  0  0  0  0  0  0  0  0
   -6.3661   -2.8494    1.3074 C   0  0  0  0  0  0  0  0  0  0  0  0
   -5.7386    0.3585   -0.3787 C   0  0  0  0  0  0  0  0  0  0  0  0
   -7.0381    0.7287   -0.7297 O   0  0  0  0  0  0  0  0  0  0  0  0
   -7.8198    1.5059    0.1845 C   0  0  0  0  0  0  0  0  0  0  0  0
  1  2  1  0
  2  3  1  0
  3  4  2  0
  4  5  1  0
  5  6  1  0
  6  7  1  0
  7  8  1  0
  8  9  2  0
  9 10  1  0
 10 11  2  0
 11 12  1  0
 12 13  1  0
 13 14  2  0
 14 15  1  0
 15 16  2  0
 16 17  1  0
 16 18  1  0
 18 19  2  0
 19 20  1  0
 11 21  1  0
 21 22  2  0
  5 23  2  0
 23 24  1  0
 24 25  1  0
 25 26  1  0
 24 27  2  0
 27 28  1  0
 28 29  1  0
 27  3  1  0
 22  8  1  0
 19 13  1  0
M  END
>  <zinc_id>  (471) 
ZINC000013472739

>  <ortholog_name>  (471) 
DRTS_PLAFK

>  <gene_name>  (471) 
DRTS_PLAFK

>  <affinity>  (471) 
7.12

>  <chembldocid>  (471) 
17636

>  <title>  (471) 
None

>  <reference.pubmed_id>  (471) 
14711307

>  <reference.doi>  (471) 
None

>  <reference.chembl_id>  (471) 
CHEMBL1148379

>  <reference.journal>  (471) 
J. Med. Chem.

>  <reference.year>  (471) 
2004

$$$$

     RDKit          3D

 31 33  0  0  0  0  0  0  0  0999 V2000
    0.1907    1.4355   -3.5167 C   0  0  0  0  0  0  0  0  0  0  0  0
   -0.0661    0.6342   -2.3875 O   0  0  0  0  0  0  0  0  0  0  0  0
    0.9979    0.3184   -1.5486 C   0  0  0  0  0  0  0  0  0  0  0  0
    2.2767    0.7836   -1.8176 C   0  0  0  0  0  0  0  0  0  0  0  0
    3.3285    0.4677   -0.9835 C   0  0  0  0  0  0  0  0  0  0  0  0
    4.6788    0.9919   -1.3183 C   0  0  0  0  0  0  0  0  0  0  0  0
    4.9774    2.2848   -0.7093 C   0  0  0  0  0  0  0  0  0  0  0  0
    5.8139    2.3559    0.3761 C   0  0  0  0  0  0  0  0  0  0  0  0
    6.0747    3.5528    0.9193 N   0  0  0  0  0  0  0  0  0  0  0  0
    5.5440    4.6551    0.4304 C   0  0  0  0  0  0  0  0  0  0  0  0
    5.8405    5.9218    1.0320 N   0  0  0  0  0  0  0  0  0  0  0  0
    4.7240    4.6190   -0.6278 N   0  0  0  0  0  0  0  0  0  0  0  0
    4.4297    3.4420   -1.2103 C   0  0  0  0  0  0  0  0  0  0  0  0
    3.5545    3.3837   -2.3423 N   0  0  0  0  0  0  0  0  0  0  0  0
    3.0565   -0.3161    0.1089 C   0  0  0  0  0  0  0  0  0  0  0  0
    1.7656   -0.7891    0.3855 C   0  0  0  0  0  0  0  0  0  0  0  0
    0.7197   -0.4682   -0.4546 C   0  0  0  0  0  0  0  0  0  0  0  0
   -0.5723   -0.9297   -0.1974 O   0  0  0  0  0  0  0  0  0  0  0  0
   -0.8946   -1.7325    0.8988 C   0  0  0  0  0  0  0  0  0  0  0  0
   -2.3566   -2.0374    0.8573 C   0  0  0  0  0  0  0  0  0  0  0  0
   -3.2525   -1.2775    1.5752 C   0  0  0  0  0  0  0  0  0  0  0  0
   -4.6043   -1.5479    1.5469 C   0  0  0  0  0  0  0  0  0  0  0  0
   -5.5101   -0.7645    2.2855 O   0  0  0  0  0  0  0  0  0  0  0  0
   -5.0524    0.3210    3.0762 C   0  0  0  0  0  0  0  0  0  0  0  0
   -5.1359   -2.5720    0.8154 C   0  0  0  0  0  0  0  0  0  0  0  0
   -6.4951   -2.8478    0.7836 O   0  0  0  0  0  0  0  0  0  0  0  0
   -7.0647   -3.7408    1.7225 C   0  0  0  0  0  0  0  0  0  0  0  0
   -4.2466   -3.3739    0.0651 C   0  0  0  0  0  0  0  0  0  0  0  0
   -4.7081   -4.3660   -0.6511 O   0  0  0  0  0  0  0  0  0  0  0  0
   -5.1459   -5.3375   -1.3544 C   0  0  0  0  0  0  0  0  0  0  0  0
   -2.8677   -3.0669    0.1188 C   0  0  0  0  0  0  0  0  0  0  0  0
  1  2  1  0
  2  3  1  0
  3  4  2  0
  4  5  1  0
  5  6  1  0
  6  7  1  0
  7  8  2  0
  8  9  1  0
  9 10  2  0
 10 11  1  0
 10 12  1  0
 12 13  2  0
 13 14  1  0
  5 15  2  0
 15 16  1  0
 16 17  2  0
 17 18  1  0
 18 19  1  0
 19 20  1  0
 20 21  2  0
 21 22  1  0
 22 23  1  0
 23 24  1  0
 22 25  2  0
 25 26  1  0
 26 27  1  0
 25 28  1  0
 28 29  1  0
 29 30  1  0
 28 31  2  0
 17  3  1  0
 31 20  1  0
 13  7  1  0
M  END
>  <zinc_id>  (472) 
ZINC000013472740

>  <ortholog_name>  (472) 
DRTS_PLAFK

>  <gene_name>  (472) 
DRTS_PLAFK

>  <affinity>  (472) 
9.22

>  <chembldocid>  (472) 
16871

>  <title>  (472) 
None

>  <reference.pubmed_id>  (472) 
11881993

>  <reference.doi>  (472) 
None

>  <reference.chembl_id>  (472) 
CHEMBL1135602

>  <reference.journal>  (472) 
J. Med. Chem.

>  <reference.year>  (472) 
2002

$$$$

     RDKit          3D

 31 33  0  0  0  0  0  0  0  0999 V2000
    0.1907    1.4355   -3.5167 C   0  0  0  0  0  0  0  0  0  0  0  0
   -0.0661    0.6342   -2.3875 O   0  0  0  0  0  0  0  0  0  0  0  0
    0.9979    0.3184   -1.5486 C   0  0  0  0  0  0  0  0  0  0  0  0
    2.2767    0.7836   -1.8176 C   0  0  0  0  0  0  0  0  0  0  0  0
    3.3285    0.4677   -0.9835 C   0  0  0  0  0  0  0  0  0  0  0  0
    4.6788    0.9919   -1.3183 C   0  0  0  0  0  0  0  0  0  0  0  0
    4.9774    2.2848   -0.7093 C   0  0  0  0  0  0  0  0  0  0  0  0
    5.8139    2.3559    0.3761 C   0  0  0  0  0  0  0  0  0  0  0  0
    6.0747    3.5528    0.9193 N   0  0  0  0  0  0  0  0  0  0  0  0
    5.5440    4.6551    0.4304 C   0  0  0  0  0  0  0  0  0  0  0  0
    5.8405    5.9218    1.0320 N   0  0  0  0  0  0  0  0  0  0  0  0
    4.7240    4.6190   -0.6278 N   0  0  0  0  0  0  0  0  0  0  0  0
    4.4297    3.4420   -1.2103 C   0  0  0  0  0  0  0  0  0  0  0  0
    3.5545    3.3837   -2.3423 N   0  0  0  0  0  0  0  0  0  0  0  0
    3.0565   -0.3161    0.1089 C   0  0  0  0  0  0  0  0  0  0  0  0
    1.7656   -0.7891    0.3855 C   0  0  0  0  0  0  0  0  0  0  0  0
    0.7197   -0.4682   -0.4546 C   0  0  0  0  0  0  0  0  0  0  0  0
   -0.5723   -0.9297   -0.1974 O   0  0  0  0  0  0  0  0  0  0  0  0
   -0.8946   -1.7325    0.8988 C   0  0  0  0  0  0  0  0  0  0  0  0
   -2.3566   -2.0374    0.8573 C   0  0  0  0  0  0  0  0  0  0  0  0
   -3.2525   -1.2775    1.5752 C   0  0  0  0  0  0  0  0  0  0  0  0
   -4.6043   -1.5479    1.5469 C   0  0  0  0  0  0  0  0  0  0  0  0
   -5.5101   -0.7645    2.2855 O   0  0  0  0  0  0  0  0  0  0  0  0
   -5.0524    0.3210    3.0762 C   0  0  0  0  0  0  0  0  0  0  0  0
   -5.1359   -2.5720    0.8154 C   0  0  0  0  0  0  0  0  0  0  0  0
   -6.4951   -2.8478    0.7836 O   0  0  0  0  0  0  0  0  0  0  0  0
   -7.0647   -3.7408    1.7225 C   0  0  0  0  0  0  0  0  0  0  0  0
   -4.2466   -3.3739    0.0651 C   0  0  0  0  0  0  0  0  0  0  0  0
   -4.7081   -4.3660   -0.6511 O   0  0  0  0  0  0  0  0  0  0  0  0
   -5.1459   -5.3375   -1.3544 C   0  0  0  0  0  0  0  0  0  0  0  0
   -2.8677   -3.0669    0.1188 C   0  0  0  0  0  0  0  0  0  0  0  0
  1  2  1  0
  2  3  1  0
  3  4  2  0
  4  5  1  0
  5  6  1  0
  6  7  1  0
  7  8  2  0
  8  9  1  0
  9 10  2  0
 10 11  1  0
 10 12  1  0
 12 13  2  0
 13 14  1  0
  5 15  2  0
 15 16  1  0
 16 17  2  0
 17 18  1  0
 18 19  1  0
 19 20  1  0
 20 21  2  0
 21 22  1  0
 22 23  1  0
 23 24  1  0
 22 25  2  0
 25 26  1  0
 26 27  1  0
 25 28  1  0
 28 29  1  0
 29 30  1  0
 28 31  2  0
 17  3  1  0
 31 20  1  0
 13  7  1  0
M  END
>  <zinc_id>  (473) 
ZINC000013472740

>  <ortholog_name>  (473) 
DRTS_PLAFK

>  <gene_name>  (473) 
DRTS_PLAFK

>  <affinity>  (473) 
9.22

>  <chembldocid>  (473) 
17636

>  <title>  (473) 
None

>  <reference.pubmed_id>  (473) 
14711307

>  <reference.doi>  (473) 
None

>  <reference.chembl_id>  (473) 
CHEMBL1148379

>  <reference.journal>  (473) 
J. Med. Chem.

>  <reference.year>  (473) 
2004

$$$$

     RDKit          3D

 31 33  0  0  0  0  0  0  0  0999 V2000
    0.1907    1.4355   -3.5167 C   0  0  0  0  0  0  0  0  0  0  0  0
   -0.0661    0.6342   -2.3875 O   0  0  0  0  0  0  0  0  0  0  0  0
    0.9979    0.3184   -1.5486 C   0  0  0  0  0  0  0  0  0  0  0  0
    2.2767    0.7836   -1.8176 C   0  0  0  0  0  0  0  0  0  0  0  0
    3.3285    0.4677   -0.9835 C   0  0  0  0  0  0  0  0  0  0  0  0
    4.6788    0.9919   -1.3183 C   0  0  0  0  0  0  0  0  0  0  0  0
    4.9774    2.2848   -0.7093 C   0  0  0  0  0  0  0  0  0  0  0  0
    5.8139    2.3559    0.3761 C   0  0  0  0  0  0  0  0  0  0  0  0
    6.0747    3.5528    0.9193 N   0  0  0  0  0  0  0  0  0  0  0  0
    5.5440    4.6551    0.4304 C   0  0  0  0  0  0  0  0  0  0  0  0
    5.8405    5.9218    1.0320 N   0  0  0  0  0  0  0  0  0  0  0  0
    4.7240    4.6190   -0.6278 N   0  0  0  0  0  0  0  0  0  0  0  0
    4.4297    3.4420   -1.2103 C   0  0  0  0  0  0  0  0  0  0  0  0
    3.5545    3.3837   -2.3423 N   0  0  0  0  0  0  0  0  0  0  0  0
    3.0565   -0.3161    0.1089 C   0  0  0  0  0  0  0  0  0  0  0  0
    1.7656   -0.7891    0.3855 C   0  0  0  0  0  0  0  0  0  0  0  0
    0.7197   -0.4682   -0.4546 C   0  0  0  0  0  0  0  0  0  0  0  0
   -0.5723   -0.9297   -0.1974 O   0  0  0  0  0  0  0  0  0  0  0  0
   -0.8946   -1.7325    0.8988 C   0  0  0  0  0  0  0  0  0  0  0  0
   -2.3566   -2.0374    0.8573 C   0  0  0  0  0  0  0  0  0  0  0  0
   -3.2525   -1.2775    1.5752 C   0  0  0  0  0  0  0  0  0  0  0  0
   -4.6043   -1.5479    1.5469 C   0  0  0  0  0  0  0  0  0  0  0  0
   -5.5101   -0.7645    2.2855 O   0  0  0  0  0  0  0  0  0  0  0  0
   -5.0524    0.3210    3.0762 C   0  0  0  0  0  0  0  0  0  0  0  0
   -5.1359   -2.5720    0.8154 C   0  0  0  0  0  0  0  0  0  0  0  0
   -6.4951   -2.8478    0.7836 O   0  0  0  0  0  0  0  0  0  0  0  0
   -7.0647   -3.7408    1.7225 C   0  0  0  0  0  0  0  0  0  0  0  0
   -4.2466   -3.3739    0.0651 C   0  0  0  0  0  0  0  0  0  0  0  0
   -4.7081   -4.3660   -0.6511 O   0  0  0  0  0  0  0  0  0  0  0  0
   -5.1459   -5.3375   -1.3544 C   0  0  0  0  0  0  0  0  0  0  0  0
   -2.8677   -3.0669    0.1188 C   0  0  0  0  0  0  0  0  0  0  0  0
  1  2  1  0
  2  3  1  0
  3  4  2  0
  4  5  1  0
  5  6  1  0
  6  7  1  0
  7  8  2  0
  8  9  1  0
  9 10  2  0
 10 11  1  0
 10 12  1  0
 12 13  2  0
 13 14  1  0
  5 15  2  0
 15 16  1  0
 16 17  2  0
 17 18  1  0
 18 19  1  0
 19 20  1  0
 20 21  2  0
 21 22  1  0
 22 23  1  0
 23 24  1  0
 22 25  2  0
 25 26  1  0
 26 27  1  0
 25 28  1  0
 28 29  1  0
 29 30  1  0
 28 31  2  0
 17  3  1  0
 31 20  1  0
 13  7  1  0
M  END
>  <zinc_id>  (474) 
ZINC000013472740

>  <ortholog_name>  (474) 
DRTS_PLAFK

>  <gene_name>  (474) 
DRTS_PLAFK

>  <affinity>  (474) 
6.91

>  <chembldocid>  (474) 
17636

>  <title>  (474) 
None

>  <reference.pubmed_id>  (474) 
14711307

>  <reference.doi>  (474) 
None

>  <reference.chembl_id>  (474) 
CHEMBL1148379

>  <reference.journal>  (474) 
J. Med. Chem.

>  <reference.year>  (474) 
2004

$$$$

     RDKit          3D

 31 33  0  0  0  0  0  0  0  0999 V2000
    0.1907    1.4355   -3.5167 C   0  0  0  0  0  0  0  0  0  0  0  0
   -0.0661    0.6342   -2.3875 O   0  0  0  0  0  0  0  0  0  0  0  0
    0.9979    0.3184   -1.5486 C   0  0  0  0  0  0  0  0  0  0  0  0
    2.2767    0.7836   -1.8176 C   0  0  0  0  0  0  0  0  0  0  0  0
    3.3285    0.4677   -0.9835 C   0  0  0  0  0  0  0  0  0  0  0  0
    4.6788    0.9919   -1.3183 C   0  0  0  0  0  0  0  0  0  0  0  0
    4.9774    2.2848   -0.7093 C   0  0  0  0  0  0  0  0  0  0  0  0
    5.8139    2.3559    0.3761 C   0  0  0  0  0  0  0  0  0  0  0  0
    6.0747    3.5528    0.9193 N   0  0  0  0  0  0  0  0  0  0  0  0
    5.5440    4.6551    0.4304 C   0  0  0  0  0  0  0  0  0  0  0  0
    5.8405    5.9218    1.0320 N   0  0  0  0  0  0  0  0  0  0  0  0
    4.7240    4.6190   -0.6278 N   0  0  0  0  0  0  0  0  0  0  0  0
    4.4297    3.4420   -1.2103 C   0  0  0  0  0  0  0  0  0  0  0  0
    3.5545    3.3837   -2.3423 N   0  0  0  0  0  0  0  0  0  0  0  0
    3.0565   -0.3161    0.1089 C   0  0  0  0  0  0  0  0  0  0  0  0
    1.7656   -0.7891    0.3855 C   0  0  0  0  0  0  0  0  0  0  0  0
    0.7197   -0.4682   -0.4546 C   0  0  0  0  0  0  0  0  0  0  0  0
   -0.5723   -0.9297   -0.1974 O   0  0  0  0  0  0  0  0  0  0  0  0
   -0.8946   -1.7325    0.8988 C   0  0  0  0  0  0  0  0  0  0  0  0
   -2.3566   -2.0374    0.8573 C   0  0  0  0  0  0  0  0  0  0  0  0
   -3.2525   -1.2775    1.5752 C   0  0  0  0  0  0  0  0  0  0  0  0
   -4.6043   -1.5479    1.5469 C   0  0  0  0  0  0  0  0  0  0  0  0
   -5.5101   -0.7645    2.2855 O   0  0  0  0  0  0  0  0  0  0  0  0
   -5.0524    0.3210    3.0762 C   0  0  0  0  0  0  0  0  0  0  0  0
   -5.1359   -2.5720    0.8154 C   0  0  0  0  0  0  0  0  0  0  0  0
   -6.4951   -2.8478    0.7836 O   0  0  0  0  0  0  0  0  0  0  0  0
   -7.0647   -3.7408    1.7225 C   0  0  0  0  0  0  0  0  0  0  0  0
   -4.2466   -3.3739    0.0651 C   0  0  0  0  0  0  0  0  0  0  0  0
   -4.7081   -4.3660   -0.6511 O   0  0  0  0  0  0  0  0  0  0  0  0
   -5.1459   -5.3375   -1.3544 C   0  0  0  0  0  0  0  0  0  0  0  0
   -2.8677   -3.0669    0.1188 C   0  0  0  0  0  0  0  0  0  0  0  0
  1  2  1  0
  2  3  1  0
  3  4  2  0
  4  5  1  0
  5  6  1  0
  6  7  1  0
  7  8  2  0
  8  9  1  0
  9 10  2  0
 10 11  1  0
 10 12  1  0
 12 13  2  0
 13 14  1  0
  5 15  2  0
 15 16  1  0
 16 17  2  0
 17 18  1  0
 18 19  1  0
 19 20  1  0
 20 21  2  0
 21 22  1  0
 22 23  1  0
 23 24  1  0
 22 25  2  0
 25 26  1  0
 26 27  1  0
 25 28  1  0
 28 29  1  0
 29 30  1  0
 28 31  2  0
 17  3  1  0
 31 20  1  0
 13  7  1  0
M  END
>  <zinc_id>  (475) 
ZINC000013472740

>  <ortholog_name>  (475) 
DRTS_PLAFK

>  <gene_name>  (475) 
DRTS_PLAFK

>  <affinity>  (475) 
6.89

>  <chembldocid>  (475) 
17636

>  <title>  (475) 
None

>  <reference.pubmed_id>  (475) 
14711307

>  <reference.doi>  (475) 
None

>  <reference.chembl_id>  (475) 
CHEMBL1148379

>  <reference.journal>  (475) 
J. Med. Chem.

>  <reference.year>  (475) 
2004

$$$$

     RDKit          3D

 31 33  0  0  0  0  0  0  0  0999 V2000
    0.1907    1.4355   -3.5167 C   0  0  0  0  0  0  0  0  0  0  0  0
   -0.0661    0.6342   -2.3875 O   0  0  0  0  0  0  0  0  0  0  0  0
    0.9979    0.3184   -1.5486 C   0  0  0  0  0  0  0  0  0  0  0  0
    2.2767    0.7836   -1.8176 C   0  0  0  0  0  0  0  0  0  0  0  0
    3.3285    0.4677   -0.9835 C   0  0  0  0  0  0  0  0  0  0  0  0
    4.6788    0.9919   -1.3183 C   0  0  0  0  0  0  0  0  0  0  0  0
    4.9774    2.2848   -0.7093 C   0  0  0  0  0  0  0  0  0  0  0  0
    5.8139    2.3559    0.3761 C   0  0  0  0  0  0  0  0  0  0  0  0
    6.0747    3.5528    0.9193 N   0  0  0  0  0  0  0  0  0  0  0  0
    5.5440    4.6551    0.4304 C   0  0  0  0  0  0  0  0  0  0  0  0
    5.8405    5.9218    1.0320 N   0  0  0  0  0  0  0  0  0  0  0  0
    4.7240    4.6190   -0.6278 N   0  0  0  0  0  0  0  0  0  0  0  0
    4.4297    3.4420   -1.2103 C   0  0  0  0  0  0  0  0  0  0  0  0
    3.5545    3.3837   -2.3423 N   0  0  0  0  0  0  0  0  0  0  0  0
    3.0565   -0.3161    0.1089 C   0  0  0  0  0  0  0  0  0  0  0  0
    1.7656   -0.7891    0.3855 C   0  0  0  0  0  0  0  0  0  0  0  0
    0.7197   -0.4682   -0.4546 C   0  0  0  0  0  0  0  0  0  0  0  0
   -0.5723   -0.9297   -0.1974 O   0  0  0  0  0  0  0  0  0  0  0  0
   -0.8946   -1.7325    0.8988 C   0  0  0  0  0  0  0  0  0  0  0  0
   -2.3566   -2.0374    0.8573 C   0  0  0  0  0  0  0  0  0  0  0  0
   -3.2525   -1.2775    1.5752 C   0  0  0  0  0  0  0  0  0  0  0  0
   -4.6043   -1.5479    1.5469 C   0  0  0  0  0  0  0  0  0  0  0  0
   -5.5101   -0.7645    2.2855 O   0  0  0  0  0  0  0  0  0  0  0  0
   -5.0524    0.3210    3.0762 C   0  0  0  0  0  0  0  0  0  0  0  0
   -5.1359   -2.5720    0.8154 C   0  0  0  0  0  0  0  0  0  0  0  0
   -6.4951   -2.8478    0.7836 O   0  0  0  0  0  0  0  0  0  0  0  0
   -7.0647   -3.7408    1.7225 C   0  0  0  0  0  0  0  0  0  0  0  0
   -4.2466   -3.3739    0.0651 C   0  0  0  0  0  0  0  0  0  0  0  0
   -4.7081   -4.3660   -0.6511 O   0  0  0  0  0  0  0  0  0  0  0  0
   -5.1459   -5.3375   -1.3544 C   0  0  0  0  0  0  0  0  0  0  0  0
   -2.8677   -3.0669    0.1188 C   0  0  0  0  0  0  0  0  0  0  0  0
  1  2  1  0
  2  3  1  0
  3  4  2  0
  4  5  1  0
  5  6  1  0
  6  7  1  0
  7  8  2  0
  8  9  1  0
  9 10  2  0
 10 11  1  0
 10 12  1  0
 12 13  2  0
 13 14  1  0
  5 15  2  0
 15 16  1  0
 16 17  2  0
 17 18  1  0
 18 19  1  0
 19 20  1  0
 20 21  2  0
 21 22  1  0
 22 23  1  0
 23 24  1  0
 22 25  2  0
 25 26  1  0
 26 27  1  0
 25 28  1  0
 28 29  1  0
 29 30  1  0
 28 31  2  0
 17  3  1  0
 31 20  1  0
 13  7  1  0
M  END
>  <zinc_id>  (476) 
ZINC000013472740

>  <ortholog_name>  (476) 
DRTS_PLAFK

>  <gene_name>  (476) 
DRTS_PLAFK

>  <affinity>  (476) 
6.89

>  <chembldocid>  (476) 
17636

>  <title>  (476) 
None

>  <reference.pubmed_id>  (476) 
14711307

>  <reference.doi>  (476) 
None

>  <reference.chembl_id>  (476) 
CHEMBL1148379

>  <reference.journal>  (476) 
J. Med. Chem.

>  <reference.year>  (476) 
2004

$$$$

     RDKit          3D

 31 33  0  0  0  0  0  0  0  0999 V2000
    0.1907    1.4355   -3.5167 C   0  0  0  0  0  0  0  0  0  0  0  0
   -0.0661    0.6342   -2.3875 O   0  0  0  0  0  0  0  0  0  0  0  0
    0.9979    0.3184   -1.5486 C   0  0  0  0  0  0  0  0  0  0  0  0
    2.2767    0.7836   -1.8176 C   0  0  0  0  0  0  0  0  0  0  0  0
    3.3285    0.4677   -0.9835 C   0  0  0  0  0  0  0  0  0  0  0  0
    4.6788    0.9919   -1.3183 C   0  0  0  0  0  0  0  0  0  0  0  0
    4.9774    2.2848   -0.7093 C   0  0  0  0  0  0  0  0  0  0  0  0
    5.8139    2.3559    0.3761 C   0  0  0  0  0  0  0  0  0  0  0  0
    6.0747    3.5528    0.9193 N   0  0  0  0  0  0  0  0  0  0  0  0
    5.5440    4.6551    0.4304 C   0  0  0  0  0  0  0  0  0  0  0  0
    5.8405    5.9218    1.0320 N   0  0  0  0  0  0  0  0  0  0  0  0
    4.7240    4.6190   -0.6278 N   0  0  0  0  0  0  0  0  0  0  0  0
    4.4297    3.4420   -1.2103 C   0  0  0  0  0  0  0  0  0  0  0  0
    3.5545    3.3837   -2.3423 N   0  0  0  0  0  0  0  0  0  0  0  0
    3.0565   -0.3161    0.1089 C   0  0  0  0  0  0  0  0  0  0  0  0
    1.7656   -0.7891    0.3855 C   0  0  0  0  0  0  0  0  0  0  0  0
    0.7197   -0.4682   -0.4546 C   0  0  0  0  0  0  0  0  0  0  0  0
   -0.5723   -0.9297   -0.1974 O   0  0  0  0  0  0  0  0  0  0  0  0
   -0.8946   -1.7325    0.8988 C   0  0  0  0  0  0  0  0  0  0  0  0
   -2.3566   -2.0374    0.8573 C   0  0  0  0  0  0  0  0  0  0  0  0
   -3.2525   -1.2775    1.5752 C   0  0  0  0  0  0  0  0  0  0  0  0
   -4.6043   -1.5479    1.5469 C   0  0  0  0  0  0  0  0  0  0  0  0
   -5.5101   -0.7645    2.2855 O   0  0  0  0  0  0  0  0  0  0  0  0
   -5.0524    0.3210    3.0762 C   0  0  0  0  0  0  0  0  0  0  0  0
   -5.1359   -2.5720    0.8154 C   0  0  0  0  0  0  0  0  0  0  0  0
   -6.4951   -2.8478    0.7836 O   0  0  0  0  0  0  0  0  0  0  0  0
   -7.0647   -3.7408    1.7225 C   0  0  0  0  0  0  0  0  0  0  0  0
   -4.2466   -3.3739    0.0651 C   0  0  0  0  0  0  0  0  0  0  0  0
   -4.7081   -4.3660   -0.6511 O   0  0  0  0  0  0  0  0  0  0  0  0
   -5.1459   -5.3375   -1.3544 C   0  0  0  0  0  0  0  0  0  0  0  0
   -2.8677   -3.0669    0.1188 C   0  0  0  0  0  0  0  0  0  0  0  0
  1  2  1  0
  2  3  1  0
  3  4  2  0
  4  5  1  0
  5  6  1  0
  6  7  1  0
  7  8  2  0
  8  9  1  0
  9 10  2  0
 10 11  1  0
 10 12  1  0
 12 13  2  0
 13 14  1  0
  5 15  2  0
 15 16  1  0
 16 17  2  0
 17 18  1  0
 18 19  1  0
 19 20  1  0
 20 21  2  0
 21 22  1  0
 22 23  1  0
 23 24  1  0
 22 25  2  0
 25 26  1  0
 26 27  1  0
 25 28  1  0
 28 29  1  0
 29 30  1  0
 28 31  2  0
 17  3  1  0
 31 20  1  0
 13  7  1  0
M  END
>  <zinc_id>  (477) 
ZINC000013472740

>  <ortholog_name>  (477) 
DRTS_PLAFK

>  <gene_name>  (477) 
DRTS_PLAFK

>  <affinity>  (477) 
6.59

>  <chembldocid>  (477) 
17636

>  <title>  (477) 
None

>  <reference.pubmed_id>  (477) 
14711307

>  <reference.doi>  (477) 
None

>  <reference.chembl_id>  (477) 
CHEMBL1148379

>  <reference.journal>  (477) 
J. Med. Chem.

>  <reference.year>  (477) 
2004

$$$$

     RDKit          3D

 31 33  0  0  0  0  0  0  0  0999 V2000
    0.1907    1.4355   -3.5167 C   0  0  0  0  0  0  0  0  0  0  0  0
   -0.0661    0.6342   -2.3875 O   0  0  0  0  0  0  0  0  0  0  0  0
    0.9979    0.3184   -1.5486 C   0  0  0  0  0  0  0  0  0  0  0  0
    2.2767    0.7836   -1.8176 C   0  0  0  0  0  0  0  0  0  0  0  0
    3.3285    0.4677   -0.9835 C   0  0  0  0  0  0  0  0  0  0  0  0
    4.6788    0.9919   -1.3183 C   0  0  0  0  0  0  0  0  0  0  0  0
    4.9774    2.2848   -0.7093 C   0  0  0  0  0  0  0  0  0  0  0  0
    5.8139    2.3559    0.3761 C   0  0  0  0  0  0  0  0  0  0  0  0
    6.0747    3.5528    0.9193 N   0  0  0  0  0  0  0  0  0  0  0  0
    5.5440    4.6551    0.4304 C   0  0  0  0  0  0  0  0  0  0  0  0
    5.8405    5.9218    1.0320 N   0  0  0  0  0  0  0  0  0  0  0  0
    4.7240    4.6190   -0.6278 N   0  0  0  0  0  0  0  0  0  0  0  0
    4.4297    3.4420   -1.2103 C   0  0  0  0  0  0  0  0  0  0  0  0
    3.5545    3.3837   -2.3423 N   0  0  0  0  0  0  0  0  0  0  0  0
    3.0565   -0.3161    0.1089 C   0  0  0  0  0  0  0  0  0  0  0  0
    1.7656   -0.7891    0.3855 C   0  0  0  0  0  0  0  0  0  0  0  0
    0.7197   -0.4682   -0.4546 C   0  0  0  0  0  0  0  0  0  0  0  0
   -0.5723   -0.9297   -0.1974 O   0  0  0  0  0  0  0  0  0  0  0  0
   -0.8946   -1.7325    0.8988 C   0  0  0  0  0  0  0  0  0  0  0  0
   -2.3566   -2.0374    0.8573 C   0  0  0  0  0  0  0  0  0  0  0  0
   -3.2525   -1.2775    1.5752 C   0  0  0  0  0  0  0  0  0  0  0  0
   -4.6043   -1.5479    1.5469 C   0  0  0  0  0  0  0  0  0  0  0  0
   -5.5101   -0.7645    2.2855 O   0  0  0  0  0  0  0  0  0  0  0  0
   -5.0524    0.3210    3.0762 C   0  0  0  0  0  0  0  0  0  0  0  0
   -5.1359   -2.5720    0.8154 C   0  0  0  0  0  0  0  0  0  0  0  0
   -6.4951   -2.8478    0.7836 O   0  0  0  0  0  0  0  0  0  0  0  0
   -7.0647   -3.7408    1.7225 C   0  0  0  0  0  0  0  0  0  0  0  0
   -4.2466   -3.3739    0.0651 C   0  0  0  0  0  0  0  0  0  0  0  0
   -4.7081   -4.3660   -0.6511 O   0  0  0  0  0  0  0  0  0  0  0  0
   -5.1459   -5.3375   -1.3544 C   0  0  0  0  0  0  0  0  0  0  0  0
   -2.8677   -3.0669    0.1188 C   0  0  0  0  0  0  0  0  0  0  0  0
  1  2  1  0
  2  3  1  0
  3  4  2  0
  4  5  1  0
  5  6  1  0
  6  7  1  0
  7  8  2  0
  8  9  1  0
  9 10  2  0
 10 11  1  0
 10 12  1  0
 12 13  2  0
 13 14  1  0
  5 15  2  0
 15 16  1  0
 16 17  2  0
 17 18  1  0
 18 19  1  0
 19 20  1  0
 20 21  2  0
 21 22  1  0
 22 23  1  0
 23 24  1  0
 22 25  2  0
 25 26  1  0
 26 27  1  0
 25 28  1  0
 28 29  1  0
 29 30  1  0
 28 31  2  0
 17  3  1  0
 31 20  1  0
 13  7  1  0
M  END
>  <zinc_id>  (478) 
ZINC000013472740

>  <ortholog_name>  (478) 
DRTS_PLAFK

>  <gene_name>  (478) 
DRTS_PLAFK

>  <affinity>  (478) 
6.51

>  <chembldocid>  (478) 
17636

>  <title>  (478) 
None

>  <reference.pubmed_id>  (478) 
14711307

>  <reference.doi>  (478) 
None

>  <reference.chembl_id>  (478) 
CHEMBL1148379

>  <reference.journal>  (478) 
J. Med. Chem.

>  <reference.year>  (478) 
2004

$$$$

     RDKit          3D

 31 33  0  0  0  0  0  0  0  0999 V2000
    0.1907    1.4355   -3.5167 C   0  0  0  0  0  0  0  0  0  0  0  0
   -0.0661    0.6342   -2.3875 O   0  0  0  0  0  0  0  0  0  0  0  0
    0.9979    0.3184   -1.5486 C   0  0  0  0  0  0  0  0  0  0  0  0
    2.2767    0.7836   -1.8176 C   0  0  0  0  0  0  0  0  0  0  0  0
    3.3285    0.4677   -0.9835 C   0  0  0  0  0  0  0  0  0  0  0  0
    4.6788    0.9919   -1.3183 C   0  0  0  0  0  0  0  0  0  0  0  0
    4.9774    2.2848   -0.7093 C   0  0  0  0  0  0  0  0  0  0  0  0
    5.8139    2.3559    0.3761 C   0  0  0  0  0  0  0  0  0  0  0  0
    6.0747    3.5528    0.9193 N   0  0  0  0  0  0  0  0  0  0  0  0
    5.5440    4.6551    0.4304 C   0  0  0  0  0  0  0  0  0  0  0  0
    5.8405    5.9218    1.0320 N   0  0  0  0  0  0  0  0  0  0  0  0
    4.7240    4.6190   -0.6278 N   0  0  0  0  0  0  0  0  0  0  0  0
    4.4297    3.4420   -1.2103 C   0  0  0  0  0  0  0  0  0  0  0  0
    3.5545    3.3837   -2.3423 N   0  0  0  0  0  0  0  0  0  0  0  0
    3.0565   -0.3161    0.1089 C   0  0  0  0  0  0  0  0  0  0  0  0
    1.7656   -0.7891    0.3855 C   0  0  0  0  0  0  0  0  0  0  0  0
    0.7197   -0.4682   -0.4546 C   0  0  0  0  0  0  0  0  0  0  0  0
   -0.5723   -0.9297   -0.1974 O   0  0  0  0  0  0  0  0  0  0  0  0
   -0.8946   -1.7325    0.8988 C   0  0  0  0  0  0  0  0  0  0  0  0
   -2.3566   -2.0374    0.8573 C   0  0  0  0  0  0  0  0  0  0  0  0
   -3.2525   -1.2775    1.5752 C   0  0  0  0  0  0  0  0  0  0  0  0
   -4.6043   -1.5479    1.5469 C   0  0  0  0  0  0  0  0  0  0  0  0
   -5.5101   -0.7645    2.2855 O   0  0  0  0  0  0  0  0  0  0  0  0
   -5.0524    0.3210    3.0762 C   0  0  0  0  0  0  0  0  0  0  0  0
   -5.1359   -2.5720    0.8154 C   0  0  0  0  0  0  0  0  0  0  0  0
   -6.4951   -2.8478    0.7836 O   0  0  0  0  0  0  0  0  0  0  0  0
   -7.0647   -3.7408    1.7225 C   0  0  0  0  0  0  0  0  0  0  0  0
   -4.2466   -3.3739    0.0651 C   0  0  0  0  0  0  0  0  0  0  0  0
   -4.7081   -4.3660   -0.6511 O   0  0  0  0  0  0  0  0  0  0  0  0
   -5.1459   -5.3375   -1.3544 C   0  0  0  0  0  0  0  0  0  0  0  0
   -2.8677   -3.0669    0.1188 C   0  0  0  0  0  0  0  0  0  0  0  0
  1  2  1  0
  2  3  1  0
  3  4  2  0
  4  5  1  0
  5  6  1  0
  6  7  1  0
  7  8  2  0
  8  9  1  0
  9 10  2  0
 10 11  1  0
 10 12  1  0
 12 13  2  0
 13 14  1  0
  5 15  2  0
 15 16  1  0
 16 17  2  0
 17 18  1  0
 18 19  1  0
 19 20  1  0
 20 21  2  0
 21 22  1  0
 22 23  1  0
 23 24  1  0
 22 25  2  0
 25 26  1  0
 26 27  1  0
 25 28  1  0
 28 29  1  0
 29 30  1  0
 28 31  2  0
 17  3  1  0
 31 20  1  0
 13  7  1  0
M  END
>  <zinc_id>  (479) 
ZINC000013472740

>  <ortholog_name>  (479) 
DRTS_PLAFK

>  <gene_name>  (479) 
DRTS_PLAFK

>  <affinity>  (479) 
7.32

>  <chembldocid>  (479) 
17636

>  <title>  (479) 
None

>  <reference.pubmed_id>  (479) 
14711307

>  <reference.doi>  (479) 
None

>  <reference.chembl_id>  (479) 
CHEMBL1148379

>  <reference.journal>  (479) 
J. Med. Chem.

>  <reference.year>  (479) 
2004

$$$$

     RDKit          3D

 31 33  0  0  0  0  0  0  0  0999 V2000
    0.1907    1.4355   -3.5167 C   0  0  0  0  0  0  0  0  0  0  0  0
   -0.0661    0.6342   -2.3875 O   0  0  0  0  0  0  0  0  0  0  0  0
    0.9979    0.3184   -1.5486 C   0  0  0  0  0  0  0  0  0  0  0  0
    2.2767    0.7836   -1.8176 C   0  0  0  0  0  0  0  0  0  0  0  0
    3.3285    0.4677   -0.9835 C   0  0  0  0  0  0  0  0  0  0  0  0
    4.6788    0.9919   -1.3183 C   0  0  0  0  0  0  0  0  0  0  0  0
    4.9774    2.2848   -0.7093 C   0  0  0  0  0  0  0  0  0  0  0  0
    5.8139    2.3559    0.3761 C   0  0  0  0  0  0  0  0  0  0  0  0
    6.0747    3.5528    0.9193 N   0  0  0  0  0  0  0  0  0  0  0  0
    5.5440    4.6551    0.4304 C   0  0  0  0  0  0  0  0  0  0  0  0
    5.8405    5.9218    1.0320 N   0  0  0  0  0  0  0  0  0  0  0  0
    4.7240    4.6190   -0.6278 N   0  0  0  0  0  0  0  0  0  0  0  0
    4.4297    3.4420   -1.2103 C   0  0  0  0  0  0  0  0  0  0  0  0
    3.5545    3.3837   -2.3423 N   0  0  0  0  0  0  0  0  0  0  0  0
    3.0565   -0.3161    0.1089 C   0  0  0  0  0  0  0  0  0  0  0  0
    1.7656   -0.7891    0.3855 C   0  0  0  0  0  0  0  0  0  0  0  0
    0.7197   -0.4682   -0.4546 C   0  0  0  0  0  0  0  0  0  0  0  0
   -0.5723   -0.9297   -0.1974 O   0  0  0  0  0  0  0  0  0  0  0  0
   -0.8946   -1.7325    0.8988 C   0  0  0  0  0  0  0  0  0  0  0  0
   -2.3566   -2.0374    0.8573 C   0  0  0  0  0  0  0  0  0  0  0  0
   -3.2525   -1.2775    1.5752 C   0  0  0  0  0  0  0  0  0  0  0  0
   -4.6043   -1.5479    1.5469 C   0  0  0  0  0  0  0  0  0  0  0  0
   -5.5101   -0.7645    2.2855 O   0  0  0  0  0  0  0  0  0  0  0  0
   -5.0524    0.3210    3.0762 C   0  0  0  0  0  0  0  0  0  0  0  0
   -5.1359   -2.5720    0.8154 C   0  0  0  0  0  0  0  0  0  0  0  0
   -6.4951   -2.8478    0.7836 O   0  0  0  0  0  0  0  0  0  0  0  0
   -7.0647   -3.7408    1.7225 C   0  0  0  0  0  0  0  0  0  0  0  0
   -4.2466   -3.3739    0.0651 C   0  0  0  0  0  0  0  0  0  0  0  0
   -4.7081   -4.3660   -0.6511 O   0  0  0  0  0  0  0  0  0  0  0  0
   -5.1459   -5.3375   -1.3544 C   0  0  0  0  0  0  0  0  0  0  0  0
   -2.8677   -3.0669    0.1188 C   0  0  0  0  0  0  0  0  0  0  0  0
  1  2  1  0
  2  3  1  0
  3  4  2  0
  4  5  1  0
  5  6  1  0
  6  7  1  0
  7  8  2  0
  8  9  1  0
  9 10  2  0
 10 11  1  0
 10 12  1  0
 12 13  2  0
 13 14  1  0
  5 15  2  0
 15 16  1  0
 16 17  2  0
 17 18  1  0
 18 19  1  0
 19 20  1  0
 20 21  2  0
 21 22  1  0
 22 23  1  0
 23 24  1  0
 22 25  2  0
 25 26  1  0
 26 27  1  0
 25 28  1  0
 28 29  1  0
 29 30  1  0
 28 31  2  0
 17  3  1  0
 31 20  1  0
 13  7  1  0
M  END
>  <zinc_id>  (480) 
ZINC000013472740

>  <ortholog_name>  (480) 
DRTS_PLAFK

>  <gene_name>  (480) 
DRTS_PLAFK

>  <affinity>  (480) 
7.30

>  <chembldocid>  (480) 
17636

>  <title>  (480) 
None

>  <reference.pubmed_id>  (480) 
14711307

>  <reference.doi>  (480) 
None

>  <reference.chembl_id>  (480) 
CHEMBL1148379

>  <reference.journal>  (480) 
J. Med. Chem.

>  <reference.year>  (480) 
2004

$$$$

     RDKit          3D

 31 33  0  0  0  0  0  0  0  0999 V2000
    0.1907    1.4355   -3.5167 C   0  0  0  0  0  0  0  0  0  0  0  0
   -0.0661    0.6342   -2.3875 O   0  0  0  0  0  0  0  0  0  0  0  0
    0.9979    0.3184   -1.5486 C   0  0  0  0  0  0  0  0  0  0  0  0
    2.2767    0.7836   -1.8176 C   0  0  0  0  0  0  0  0  0  0  0  0
    3.3285    0.4677   -0.9835 C   0  0  0  0  0  0  0  0  0  0  0  0
    4.6788    0.9919   -1.3183 C   0  0  0  0  0  0  0  0  0  0  0  0
    4.9774    2.2848   -0.7093 C   0  0  0  0  0  0  0  0  0  0  0  0
    5.8139    2.3559    0.3761 C   0  0  0  0  0  0  0  0  0  0  0  0
    6.0747    3.5528    0.9193 N   0  0  0  0  0  0  0  0  0  0  0  0
    5.5440    4.6551    0.4304 C   0  0  0  0  0  0  0  0  0  0  0  0
    5.8405    5.9218    1.0320 N   0  0  0  0  0  0  0  0  0  0  0  0
    4.7240    4.6190   -0.6278 N   0  0  0  0  0  0  0  0  0  0  0  0
    4.4297    3.4420   -1.2103 C   0  0  0  0  0  0  0  0  0  0  0  0
    3.5545    3.3837   -2.3423 N   0  0  0  0  0  0  0  0  0  0  0  0
    3.0565   -0.3161    0.1089 C   0  0  0  0  0  0  0  0  0  0  0  0
    1.7656   -0.7891    0.3855 C   0  0  0  0  0  0  0  0  0  0  0  0
    0.7197   -0.4682   -0.4546 C   0  0  0  0  0  0  0  0  0  0  0  0
   -0.5723   -0.9297   -0.1974 O   0  0  0  0  0  0  0  0  0  0  0  0
   -0.8946   -1.7325    0.8988 C   0  0  0  0  0  0  0  0  0  0  0  0
   -2.3566   -2.0374    0.8573 C   0  0  0  0  0  0  0  0  0  0  0  0
   -3.2525   -1.2775    1.5752 C   0  0  0  0  0  0  0  0  0  0  0  0
   -4.6043   -1.5479    1.5469 C   0  0  0  0  0  0  0  0  0  0  0  0
   -5.5101   -0.7645    2.2855 O   0  0  0  0  0  0  0  0  0  0  0  0
   -5.0524    0.3210    3.0762 C   0  0  0  0  0  0  0  0  0  0  0  0
   -5.1359   -2.5720    0.8154 C   0  0  0  0  0  0  0  0  0  0  0  0
   -6.4951   -2.8478    0.7836 O   0  0  0  0  0  0  0  0  0  0  0  0
   -7.0647   -3.7408    1.7225 C   0  0  0  0  0  0  0  0  0  0  0  0
   -4.2466   -3.3739    0.0651 C   0  0  0  0  0  0  0  0  0  0  0  0
   -4.7081   -4.3660   -0.6511 O   0  0  0  0  0  0  0  0  0  0  0  0
   -5.1459   -5.3375   -1.3544 C   0  0  0  0  0  0  0  0  0  0  0  0
   -2.8677   -3.0669    0.1188 C   0  0  0  0  0  0  0  0  0  0  0  0
  1  2  1  0
  2  3  1  0
  3  4  2  0
  4  5  1  0
  5  6  1  0
  6  7  1  0
  7  8  2  0
  8  9  1  0
  9 10  2  0
 10 11  1  0
 10 12  1  0
 12 13  2  0
 13 14  1  0
  5 15  2  0
 15 16  1  0
 16 17  2  0
 17 18  1  0
 18 19  1  0
 19 20  1  0
 20 21  2  0
 21 22  1  0
 22 23  1  0
 23 24  1  0
 22 25  2  0
 25 26  1  0
 26 27  1  0
 25 28  1  0
 28 29  1  0
 29 30  1  0
 28 31  2  0
 17  3  1  0
 31 20  1  0
 13  7  1  0
M  END
>  <zinc_id>  (481) 
ZINC000013472740

>  <ortholog_name>  (481) 
DRTS_PLAFK

>  <gene_name>  (481) 
DRTS_PLAFK

>  <affinity>  (481) 
8.21

>  <chembldocid>  (481) 
16871

>  <title>  (481) 
None

>  <reference.pubmed_id>  (481) 
11881993

>  <reference.doi>  (481) 
None

>  <reference.chembl_id>  (481) 
CHEMBL1135602

>  <reference.journal>  (481) 
J. Med. Chem.

>  <reference.year>  (481) 
2002

$$$$

     RDKit          3D

 31 33  0  0  0  0  0  0  0  0999 V2000
    0.1907    1.4355   -3.5167 C   0  0  0  0  0  0  0  0  0  0  0  0
   -0.0661    0.6342   -2.3875 O   0  0  0  0  0  0  0  0  0  0  0  0
    0.9979    0.3184   -1.5486 C   0  0  0  0  0  0  0  0  0  0  0  0
    2.2767    0.7836   -1.8176 C   0  0  0  0  0  0  0  0  0  0  0  0
    3.3285    0.4677   -0.9835 C   0  0  0  0  0  0  0  0  0  0  0  0
    4.6788    0.9919   -1.3183 C   0  0  0  0  0  0  0  0  0  0  0  0
    4.9774    2.2848   -0.7093 C   0  0  0  0  0  0  0  0  0  0  0  0
    5.8139    2.3559    0.3761 C   0  0  0  0  0  0  0  0  0  0  0  0
    6.0747    3.5528    0.9193 N   0  0  0  0  0  0  0  0  0  0  0  0
    5.5440    4.6551    0.4304 C   0  0  0  0  0  0  0  0  0  0  0  0
    5.8405    5.9218    1.0320 N   0  0  0  0  0  0  0  0  0  0  0  0
    4.7240    4.6190   -0.6278 N   0  0  0  0  0  0  0  0  0  0  0  0
    4.4297    3.4420   -1.2103 C   0  0  0  0  0  0  0  0  0  0  0  0
    3.5545    3.3837   -2.3423 N   0  0  0  0  0  0  0  0  0  0  0  0
    3.0565   -0.3161    0.1089 C   0  0  0  0  0  0  0  0  0  0  0  0
    1.7656   -0.7891    0.3855 C   0  0  0  0  0  0  0  0  0  0  0  0
    0.7197   -0.4682   -0.4546 C   0  0  0  0  0  0  0  0  0  0  0  0
   -0.5723   -0.9297   -0.1974 O   0  0  0  0  0  0  0  0  0  0  0  0
   -0.8946   -1.7325    0.8988 C   0  0  0  0  0  0  0  0  0  0  0  0
   -2.3566   -2.0374    0.8573 C   0  0  0  0  0  0  0  0  0  0  0  0
   -3.2525   -1.2775    1.5752 C   0  0  0  0  0  0  0  0  0  0  0  0
   -4.6043   -1.5479    1.5469 C   0  0  0  0  0  0  0  0  0  0  0  0
   -5.5101   -0.7645    2.2855 O   0  0  0  0  0  0  0  0  0  0  0  0
   -5.0524    0.3210    3.0762 C   0  0  0  0  0  0  0  0  0  0  0  0
   -5.1359   -2.5720    0.8154 C   0  0  0  0  0  0  0  0  0  0  0  0
   -6.4951   -2.8478    0.7836 O   0  0  0  0  0  0  0  0  0  0  0  0
   -7.0647   -3.7408    1.7225 C   0  0  0  0  0  0  0  0  0  0  0  0
   -4.2466   -3.3739    0.0651 C   0  0  0  0  0  0  0  0  0  0  0  0
   -4.7081   -4.3660   -0.6511 O   0  0  0  0  0  0  0  0  0  0  0  0
   -5.1459   -5.3375   -1.3544 C   0  0  0  0  0  0  0  0  0  0  0  0
   -2.8677   -3.0669    0.1188 C   0  0  0  0  0  0  0  0  0  0  0  0
  1  2  1  0
  2  3  1  0
  3  4  2  0
  4  5  1  0
  5  6  1  0
  6  7  1  0
  7  8  2  0
  8  9  1  0
  9 10  2  0
 10 11  1  0
 10 12  1  0
 12 13  2  0
 13 14  1  0
  5 15  2  0
 15 16  1  0
 16 17  2  0
 17 18  1  0
 18 19  1  0
 19 20  1  0
 20 21  2  0
 21 22  1  0
 22 23  1  0
 23 24  1  0
 22 25  2  0
 25 26  1  0
 26 27  1  0
 25 28  1  0
 28 29  1  0
 29 30  1  0
 28 31  2  0
 17  3  1  0
 31 20  1  0
 13  7  1  0
M  END
>  <zinc_id>  (482) 
ZINC000013472740

>  <ortholog_name>  (482) 
DRTS_PLAFK

>  <gene_name>  (482) 
DRTS_PLAFK

>  <affinity>  (482) 
8.06

>  <chembldocid>  (482) 
16871

>  <title>  (482) 
None

>  <reference.pubmed_id>  (482) 
11881993

>  <reference.doi>  (482) 
None

>  <reference.chembl_id>  (482) 
CHEMBL1135602

>  <reference.journal>  (482) 
J. Med. Chem.

>  <reference.year>  (482) 
2002

$$$$

     RDKit          3D

 31 33  0  0  0  0  0  0  0  0999 V2000
    0.1907    1.4355   -3.5167 C   0  0  0  0  0  0  0  0  0  0  0  0
   -0.0661    0.6342   -2.3875 O   0  0  0  0  0  0  0  0  0  0  0  0
    0.9979    0.3184   -1.5486 C   0  0  0  0  0  0  0  0  0  0  0  0
    2.2767    0.7836   -1.8176 C   0  0  0  0  0  0  0  0  0  0  0  0
    3.3285    0.4677   -0.9835 C   0  0  0  0  0  0  0  0  0  0  0  0
    4.6788    0.9919   -1.3183 C   0  0  0  0  0  0  0  0  0  0  0  0
    4.9774    2.2848   -0.7093 C   0  0  0  0  0  0  0  0  0  0  0  0
    5.8139    2.3559    0.3761 C   0  0  0  0  0  0  0  0  0  0  0  0
    6.0747    3.5528    0.9193 N   0  0  0  0  0  0  0  0  0  0  0  0
    5.5440    4.6551    0.4304 C   0  0  0  0  0  0  0  0  0  0  0  0
    5.8405    5.9218    1.0320 N   0  0  0  0  0  0  0  0  0  0  0  0
    4.7240    4.6190   -0.6278 N   0  0  0  0  0  0  0  0  0  0  0  0
    4.4297    3.4420   -1.2103 C   0  0  0  0  0  0  0  0  0  0  0  0
    3.5545    3.3837   -2.3423 N   0  0  0  0  0  0  0  0  0  0  0  0
    3.0565   -0.3161    0.1089 C   0  0  0  0  0  0  0  0  0  0  0  0
    1.7656   -0.7891    0.3855 C   0  0  0  0  0  0  0  0  0  0  0  0
    0.7197   -0.4682   -0.4546 C   0  0  0  0  0  0  0  0  0  0  0  0
   -0.5723   -0.9297   -0.1974 O   0  0  0  0  0  0  0  0  0  0  0  0
   -0.8946   -1.7325    0.8988 C   0  0  0  0  0  0  0  0  0  0  0  0
   -2.3566   -2.0374    0.8573 C   0  0  0  0  0  0  0  0  0  0  0  0
   -3.2525   -1.2775    1.5752 C   0  0  0  0  0  0  0  0  0  0  0  0
   -4.6043   -1.5479    1.5469 C   0  0  0  0  0  0  0  0  0  0  0  0
   -5.5101   -0.7645    2.2855 O   0  0  0  0  0  0  0  0  0  0  0  0
   -5.0524    0.3210    3.0762 C   0  0  0  0  0  0  0  0  0  0  0  0
   -5.1359   -2.5720    0.8154 C   0  0  0  0  0  0  0  0  0  0  0  0
   -6.4951   -2.8478    0.7836 O   0  0  0  0  0  0  0  0  0  0  0  0
   -7.0647   -3.7408    1.7225 C   0  0  0  0  0  0  0  0  0  0  0  0
   -4.2466   -3.3739    0.0651 C   0  0  0  0  0  0  0  0  0  0  0  0
   -4.7081   -4.3660   -0.6511 O   0  0  0  0  0  0  0  0  0  0  0  0
   -5.1459   -5.3375   -1.3544 C   0  0  0  0  0  0  0  0  0  0  0  0
   -2.8677   -3.0669    0.1188 C   0  0  0  0  0  0  0  0  0  0  0  0
  1  2  1  0
  2  3  1  0
  3  4  2  0
  4  5  1  0
  5  6  1  0
  6  7  1  0
  7  8  2  0
  8  9  1  0
  9 10  2  0
 10 11  1  0
 10 12  1  0
 12 13  2  0
 13 14  1  0
  5 15  2  0
 15 16  1  0
 16 17  2  0
 17 18  1  0
 18 19  1  0
 19 20  1  0
 20 21  2  0
 21 22  1  0
 22 23  1  0
 23 24  1  0
 22 25  2  0
 25 26  1  0
 26 27  1  0
 25 28  1  0
 28 29  1  0
 29 30  1  0
 28 31  2  0
 17  3  1  0
 31 20  1  0
 13  7  1  0
M  END
>  <zinc_id>  (483) 
ZINC000013472740

>  <ortholog_name>  (483) 
DRTS_PLAFK

>  <gene_name>  (483) 
DRTS_PLAFK

>  <affinity>  (483) 
8.06

>  <chembldocid>  (483) 
17636

>  <title>  (483) 
None

>  <reference.pubmed_id>  (483) 
14711307

>  <reference.doi>  (483) 
None

>  <reference.chembl_id>  (483) 
CHEMBL1148379

>  <reference.journal>  (483) 
J. Med. Chem.

>  <reference.year>  (483) 
2004

$$$$

     RDKit          3D

 32 34  0  0  0  0  0  0  0  0999 V2000
    1.8262    4.3014   -3.4762 C   0  0  0  0  0  0  0  0  0  0  0  0
    2.0191    3.5113   -2.2077 C   0  0  0  0  0  0  0  0  0  0  0  0
    1.1084    2.4556   -2.1713 O   0  0  0  0  0  0  0  0  0  0  0  0
    1.0300    1.5382   -1.1290 C   0  0  0  0  0  0  0  0  0  0  0  0
    1.8592    1.5980   -0.0261 C   0  0  0  0  0  0  0  0  0  0  0  0
    1.8055    0.7069    1.0180 C   0  0  0  0  0  0  0  0  0  0  0  0
    2.7352    0.8203    2.1970 C   0  0  0  0  0  0  0  0  0  0  0  0
    3.9360    0.0055    1.8371 C   0  0  0  0  0  0  0  0  0  0  0  0
    4.1622   -1.2409    2.3753 C   0  0  0  0  0  0  0  0  0  0  0  0
    5.2697   -1.9028    1.9941 N   0  0  0  0  0  0  0  0  0  0  0  0
    6.1662   -1.4126    1.1167 C   0  0  0  0  0  0  0  0  0  0  0  0
    7.3051   -2.2191    0.7947 N   0  0  0  0  0  0  0  0  0  0  0  0
    5.9361   -0.2106    0.6058 N   0  0  0  0  0  0  0  0  0  0  0  0
    4.8410    0.5114    0.9453 C   0  0  0  0  0  0  0  0  0  0  0  0
    4.6457    1.8085    0.3580 N   0  0  0  0  0  0  0  0  0  0  0  0
    0.8618   -0.2972    0.9392 C   0  0  0  0  0  0  0  0  0  0  0  0
    0.0076   -0.3911   -0.1565 C   0  0  0  0  0  0  0  0  0  0  0  0
    0.0832    0.5225   -1.1975 C   0  0  0  0  0  0  0  0  0  0  0  0
   -0.7256    0.4827   -2.2967 O   0  0  0  0  0  0  0  0  0  0  0  0
   -1.7361   -0.4278   -2.5893 C   0  0  0  0  0  0  0  0  0  0  0  0
   -2.8170   -0.4239   -1.5521 C   0  0  0  0  0  0  0  0  0  0  0  0
   -3.9186   -1.2454   -1.6581 C   0  0  0  0  0  0  0  0  0  0  0  0
   -4.9154   -1.2425   -0.7011 C   0  0  0  0  0  0  0  0  0  0  0  0
   -6.0046   -2.0701   -0.8273 O   0  0  0  0  0  0  0  0  0  0  0  0
   -6.1398   -2.9482   -1.9364 C   0  0  0  0  0  0  0  0  0  0  0  0
   -4.8557   -0.4185    0.4042 C   0  0  0  0  0  0  0  0  0  0  0  0
   -5.8627   -0.4213    1.3634 O   0  0  0  0  0  0  0  0  0  0  0  0
   -5.8652   -1.2572    2.4968 C   0  0  0  0  0  0  0  0  0  0  0  0
   -3.7584    0.4063    0.5186 C   0  0  0  0  0  0  0  0  0  0  0  0
   -3.6641    1.2449    1.6111 O   0  0  0  0  0  0  0  0  0  0  0  0
   -2.5829    2.1108    1.7990 C   0  0  0  0  0  0  0  0  0  0  0  0
   -2.7522    0.4020   -0.4491 C   0  0  0  0  0  0  0  0  0  0  0  0
  1  2  1  0
  2  3  1  0
  3  4  1  0
  4  5  2  0
  5  6  1  0
  6  7  1  0
  7  8  1  0
  8  9  2  0
  9 10  1  0
 10 11  2  0
 11 12  1  0
 11 13  1  0
 13 14  2  0
 14 15  1  0
  6 16  2  0
 16 17  1  0
 17 18  2  0
 18 19  1  0
 19 20  1  0
 20 21  1  0
 21 22  2  0
 22 23  1  0
 23 24  1  0
 24 25  1  0
 23 26  2  0
 26 27  1  0
 27 28  1  0
 26 29  1  0
 29 30  1  0
 30 31  1  0
 29 32  2  0
 18  4  1  0
 32 21  1  0
 14  8  1  0
M  END
>  <zinc_id>  (484) 
ZINC000013472741

>  <ortholog_name>  (484) 
DRTS_PLAFK

>  <gene_name>  (484) 
DRTS_PLAFK

>  <affinity>  (484) 
9.52

>  <chembldocid>  (484) 
16871

>  <title>  (484) 
None

>  <reference.pubmed_id>  (484) 
11881993

>  <reference.doi>  (484) 
None

>  <reference.chembl_id>  (484) 
CHEMBL1135602

>  <reference.journal>  (484) 
J. Med. Chem.

>  <reference.year>  (484) 
2002

$$$$

     RDKit          3D

 32 34  0  0  0  0  0  0  0  0999 V2000
    1.8262    4.3014   -3.4762 C   0  0  0  0  0  0  0  0  0  0  0  0
    2.0191    3.5113   -2.2077 C   0  0  0  0  0  0  0  0  0  0  0  0
    1.1084    2.4556   -2.1713 O   0  0  0  0  0  0  0  0  0  0  0  0
    1.0300    1.5382   -1.1290 C   0  0  0  0  0  0  0  0  0  0  0  0
    1.8592    1.5980   -0.0261 C   0  0  0  0  0  0  0  0  0  0  0  0
    1.8055    0.7069    1.0180 C   0  0  0  0  0  0  0  0  0  0  0  0
    2.7352    0.8203    2.1970 C   0  0  0  0  0  0  0  0  0  0  0  0
    3.9360    0.0055    1.8371 C   0  0  0  0  0  0  0  0  0  0  0  0
    4.1622   -1.2409    2.3753 C   0  0  0  0  0  0  0  0  0  0  0  0
    5.2697   -1.9028    1.9941 N   0  0  0  0  0  0  0  0  0  0  0  0
    6.1662   -1.4126    1.1167 C   0  0  0  0  0  0  0  0  0  0  0  0
    7.3051   -2.2191    0.7947 N   0  0  0  0  0  0  0  0  0  0  0  0
    5.9361   -0.2106    0.6058 N   0  0  0  0  0  0  0  0  0  0  0  0
    4.8410    0.5114    0.9453 C   0  0  0  0  0  0  0  0  0  0  0  0
    4.6457    1.8085    0.3580 N   0  0  0  0  0  0  0  0  0  0  0  0
    0.8618   -0.2972    0.9392 C   0  0  0  0  0  0  0  0  0  0  0  0
    0.0076   -0.3911   -0.1565 C   0  0  0  0  0  0  0  0  0  0  0  0
    0.0832    0.5225   -1.1975 C   0  0  0  0  0  0  0  0  0  0  0  0
   -0.7256    0.4827   -2.2967 O   0  0  0  0  0  0  0  0  0  0  0  0
   -1.7361   -0.4278   -2.5893 C   0  0  0  0  0  0  0  0  0  0  0  0
   -2.8170   -0.4239   -1.5521 C   0  0  0  0  0  0  0  0  0  0  0  0
   -3.9186   -1.2454   -1.6581 C   0  0  0  0  0  0  0  0  0  0  0  0
   -4.9154   -1.2425   -0.7011 C   0  0  0  0  0  0  0  0  0  0  0  0
   -6.0046   -2.0701   -0.8273 O   0  0  0  0  0  0  0  0  0  0  0  0
   -6.1398   -2.9482   -1.9364 C   0  0  0  0  0  0  0  0  0  0  0  0
   -4.8557   -0.4185    0.4042 C   0  0  0  0  0  0  0  0  0  0  0  0
   -5.8627   -0.4213    1.3634 O   0  0  0  0  0  0  0  0  0  0  0  0
   -5.8652   -1.2572    2.4968 C   0  0  0  0  0  0  0  0  0  0  0  0
   -3.7584    0.4063    0.5186 C   0  0  0  0  0  0  0  0  0  0  0  0
   -3.6641    1.2449    1.6111 O   0  0  0  0  0  0  0  0  0  0  0  0
   -2.5829    2.1108    1.7990 C   0  0  0  0  0  0  0  0  0  0  0  0
   -2.7522    0.4020   -0.4491 C   0  0  0  0  0  0  0  0  0  0  0  0
  1  2  1  0
  2  3  1  0
  3  4  1  0
  4  5  2  0
  5  6  1  0
  6  7  1  0
  7  8  1  0
  8  9  2  0
  9 10  1  0
 10 11  2  0
 11 12  1  0
 11 13  1  0
 13 14  2  0
 14 15  1  0
  6 16  2  0
 16 17  1  0
 17 18  2  0
 18 19  1  0
 19 20  1  0
 20 21  1  0
 21 22  2  0
 22 23  1  0
 23 24  1  0
 24 25  1  0
 23 26  2  0
 26 27  1  0
 27 28  1  0
 26 29  1  0
 29 30  1  0
 30 31  1  0
 29 32  2  0
 18  4  1  0
 32 21  1  0
 14  8  1  0
M  END
>  <zinc_id>  (485) 
ZINC000013472741

>  <ortholog_name>  (485) 
DRTS_PLAFK

>  <gene_name>  (485) 
DRTS_PLAFK

>  <affinity>  (485) 
9.52

>  <chembldocid>  (485) 
17636

>  <title>  (485) 
None

>  <reference.pubmed_id>  (485) 
14711307

>  <reference.doi>  (485) 
None

>  <reference.chembl_id>  (485) 
CHEMBL1148379

>  <reference.journal>  (485) 
J. Med. Chem.

>  <reference.year>  (485) 
2004

$$$$

     RDKit          3D

 32 34  0  0  0  0  0  0  0  0999 V2000
    1.8262    4.3014   -3.4762 C   0  0  0  0  0  0  0  0  0  0  0  0
    2.0191    3.5113   -2.2077 C   0  0  0  0  0  0  0  0  0  0  0  0
    1.1084    2.4556   -2.1713 O   0  0  0  0  0  0  0  0  0  0  0  0
    1.0300    1.5382   -1.1290 C   0  0  0  0  0  0  0  0  0  0  0  0
    1.8592    1.5980   -0.0261 C   0  0  0  0  0  0  0  0  0  0  0  0
    1.8055    0.7069    1.0180 C   0  0  0  0  0  0  0  0  0  0  0  0
    2.7352    0.8203    2.1970 C   0  0  0  0  0  0  0  0  0  0  0  0
    3.9360    0.0055    1.8371 C   0  0  0  0  0  0  0  0  0  0  0  0
    4.1622   -1.2409    2.3753 C   0  0  0  0  0  0  0  0  0  0  0  0
    5.2697   -1.9028    1.9941 N   0  0  0  0  0  0  0  0  0  0  0  0
    6.1662   -1.4126    1.1167 C   0  0  0  0  0  0  0  0  0  0  0  0
    7.3051   -2.2191    0.7947 N   0  0  0  0  0  0  0  0  0  0  0  0
    5.9361   -0.2106    0.6058 N   0  0  0  0  0  0  0  0  0  0  0  0
    4.8410    0.5114    0.9453 C   0  0  0  0  0  0  0  0  0  0  0  0
    4.6457    1.8085    0.3580 N   0  0  0  0  0  0  0  0  0  0  0  0
    0.8618   -0.2972    0.9392 C   0  0  0  0  0  0  0  0  0  0  0  0
    0.0076   -0.3911   -0.1565 C   0  0  0  0  0  0  0  0  0  0  0  0
    0.0832    0.5225   -1.1975 C   0  0  0  0  0  0  0  0  0  0  0  0
   -0.7256    0.4827   -2.2967 O   0  0  0  0  0  0  0  0  0  0  0  0
   -1.7361   -0.4278   -2.5893 C   0  0  0  0  0  0  0  0  0  0  0  0
   -2.8170   -0.4239   -1.5521 C   0  0  0  0  0  0  0  0  0  0  0  0
   -3.9186   -1.2454   -1.6581 C   0  0  0  0  0  0  0  0  0  0  0  0
   -4.9154   -1.2425   -0.7011 C   0  0  0  0  0  0  0  0  0  0  0  0
   -6.0046   -2.0701   -0.8273 O   0  0  0  0  0  0  0  0  0  0  0  0
   -6.1398   -2.9482   -1.9364 C   0  0  0  0  0  0  0  0  0  0  0  0
   -4.8557   -0.4185    0.4042 C   0  0  0  0  0  0  0  0  0  0  0  0
   -5.8627   -0.4213    1.3634 O   0  0  0  0  0  0  0  0  0  0  0  0
   -5.8652   -1.2572    2.4968 C   0  0  0  0  0  0  0  0  0  0  0  0
   -3.7584    0.4063    0.5186 C   0  0  0  0  0  0  0  0  0  0  0  0
   -3.6641    1.2449    1.6111 O   0  0  0  0  0  0  0  0  0  0  0  0
   -2.5829    2.1108    1.7990 C   0  0  0  0  0  0  0  0  0  0  0  0
   -2.7522    0.4020   -0.4491 C   0  0  0  0  0  0  0  0  0  0  0  0
  1  2  1  0
  2  3  1  0
  3  4  1  0
  4  5  2  0
  5  6  1  0
  6  7  1  0
  7  8  1  0
  8  9  2  0
  9 10  1  0
 10 11  2  0
 11 12  1  0
 11 13  1  0
 13 14  2  0
 14 15  1  0
  6 16  2  0
 16 17  1  0
 17 18  2  0
 18 19  1  0
 19 20  1  0
 20 21  1  0
 21 22  2  0
 22 23  1  0
 23 24  1  0
 24 25  1  0
 23 26  2  0
 26 27  1  0
 27 28  1  0
 26 29  1  0
 29 30  1  0
 30 31  1  0
 29 32  2  0
 18  4  1  0
 32 21  1  0
 14  8  1  0
M  END
>  <zinc_id>  (486) 
ZINC000013472741

>  <ortholog_name>  (486) 
DRTS_PLAFK

>  <gene_name>  (486) 
DRTS_PLAFK

>  <affinity>  (486) 
8.74

>  <chembldocid>  (486) 
16871

>  <title>  (486) 
None

>  <reference.pubmed_id>  (486) 
11881993

>  <reference.doi>  (486) 
None

>  <reference.chembl_id>  (486) 
CHEMBL1135602

>  <reference.journal>  (486) 
J. Med. Chem.

>  <reference.year>  (486) 
2002

$$$$

     RDKit          3D

 32 34  0  0  0  0  0  0  0  0999 V2000
    1.8262    4.3014   -3.4762 C   0  0  0  0  0  0  0  0  0  0  0  0
    2.0191    3.5113   -2.2077 C   0  0  0  0  0  0  0  0  0  0  0  0
    1.1084    2.4556   -2.1713 O   0  0  0  0  0  0  0  0  0  0  0  0
    1.0300    1.5382   -1.1290 C   0  0  0  0  0  0  0  0  0  0  0  0
    1.8592    1.5980   -0.0261 C   0  0  0  0  0  0  0  0  0  0  0  0
    1.8055    0.7069    1.0180 C   0  0  0  0  0  0  0  0  0  0  0  0
    2.7352    0.8203    2.1970 C   0  0  0  0  0  0  0  0  0  0  0  0
    3.9360    0.0055    1.8371 C   0  0  0  0  0  0  0  0  0  0  0  0
    4.1622   -1.2409    2.3753 C   0  0  0  0  0  0  0  0  0  0  0  0
    5.2697   -1.9028    1.9941 N   0  0  0  0  0  0  0  0  0  0  0  0
    6.1662   -1.4126    1.1167 C   0  0  0  0  0  0  0  0  0  0  0  0
    7.3051   -2.2191    0.7947 N   0  0  0  0  0  0  0  0  0  0  0  0
    5.9361   -0.2106    0.6058 N   0  0  0  0  0  0  0  0  0  0  0  0
    4.8410    0.5114    0.9453 C   0  0  0  0  0  0  0  0  0  0  0  0
    4.6457    1.8085    0.3580 N   0  0  0  0  0  0  0  0  0  0  0  0
    0.8618   -0.2972    0.9392 C   0  0  0  0  0  0  0  0  0  0  0  0
    0.0076   -0.3911   -0.1565 C   0  0  0  0  0  0  0  0  0  0  0  0
    0.0832    0.5225   -1.1975 C   0  0  0  0  0  0  0  0  0  0  0  0
   -0.7256    0.4827   -2.2967 O   0  0  0  0  0  0  0  0  0  0  0  0
   -1.7361   -0.4278   -2.5893 C   0  0  0  0  0  0  0  0  0  0  0  0
   -2.8170   -0.4239   -1.5521 C   0  0  0  0  0  0  0  0  0  0  0  0
   -3.9186   -1.2454   -1.6581 C   0  0  0  0  0  0  0  0  0  0  0  0
   -4.9154   -1.2425   -0.7011 C   0  0  0  0  0  0  0  0  0  0  0  0
   -6.0046   -2.0701   -0.8273 O   0  0  0  0  0  0  0  0  0  0  0  0
   -6.1398   -2.9482   -1.9364 C   0  0  0  0  0  0  0  0  0  0  0  0
   -4.8557   -0.4185    0.4042 C   0  0  0  0  0  0  0  0  0  0  0  0
   -5.8627   -0.4213    1.3634 O   0  0  0  0  0  0  0  0  0  0  0  0
   -5.8652   -1.2572    2.4968 C   0  0  0  0  0  0  0  0  0  0  0  0
   -3.7584    0.4063    0.5186 C   0  0  0  0  0  0  0  0  0  0  0  0
   -3.6641    1.2449    1.6111 O   0  0  0  0  0  0  0  0  0  0  0  0
   -2.5829    2.1108    1.7990 C   0  0  0  0  0  0  0  0  0  0  0  0
   -2.7522    0.4020   -0.4491 C   0  0  0  0  0  0  0  0  0  0  0  0
  1  2  1  0
  2  3  1  0
  3  4  1  0
  4  5  2  0
  5  6  1  0
  6  7  1  0
  7  8  1  0
  8  9  2  0
  9 10  1  0
 10 11  2  0
 11 12  1  0
 11 13  1  0
 13 14  2  0
 14 15  1  0
  6 16  2  0
 16 17  1  0
 17 18  2  0
 18 19  1  0
 19 20  1  0
 20 21  1  0
 21 22  2  0
 22 23  1  0
 23 24  1  0
 24 25  1  0
 23 26  2  0
 26 27  1  0
 27 28  1  0
 26 29  1  0
 29 30  1  0
 30 31  1  0
 29 32  2  0
 18  4  1  0
 32 21  1  0
 14  8  1  0
M  END
>  <zinc_id>  (487) 
ZINC000013472741

>  <ortholog_name>  (487) 
DRTS_PLAFK

>  <gene_name>  (487) 
DRTS_PLAFK

>  <affinity>  (487) 
8.00

>  <chembldocid>  (487) 
17636

>  <title>  (487) 
None

>  <reference.pubmed_id>  (487) 
14711307

>  <reference.doi>  (487) 
None

>  <reference.chembl_id>  (487) 
CHEMBL1148379

>  <reference.journal>  (487) 
J. Med. Chem.

>  <reference.year>  (487) 
2004

$$$$

     RDKit          3D

 32 34  0  0  0  0  0  0  0  0999 V2000
    1.8262    4.3014   -3.4762 C   0  0  0  0  0  0  0  0  0  0  0  0
    2.0191    3.5113   -2.2077 C   0  0  0  0  0  0  0  0  0  0  0  0
    1.1084    2.4556   -2.1713 O   0  0  0  0  0  0  0  0  0  0  0  0
    1.0300    1.5382   -1.1290 C   0  0  0  0  0  0  0  0  0  0  0  0
    1.8592    1.5980   -0.0261 C   0  0  0  0  0  0  0  0  0  0  0  0
    1.8055    0.7069    1.0180 C   0  0  0  0  0  0  0  0  0  0  0  0
    2.7352    0.8203    2.1970 C   0  0  0  0  0  0  0  0  0  0  0  0
    3.9360    0.0055    1.8371 C   0  0  0  0  0  0  0  0  0  0  0  0
    4.1622   -1.2409    2.3753 C   0  0  0  0  0  0  0  0  0  0  0  0
    5.2697   -1.9028    1.9941 N   0  0  0  0  0  0  0  0  0  0  0  0
    6.1662   -1.4126    1.1167 C   0  0  0  0  0  0  0  0  0  0  0  0
    7.3051   -2.2191    0.7947 N   0  0  0  0  0  0  0  0  0  0  0  0
    5.9361   -0.2106    0.6058 N   0  0  0  0  0  0  0  0  0  0  0  0
    4.8410    0.5114    0.9453 C   0  0  0  0  0  0  0  0  0  0  0  0
    4.6457    1.8085    0.3580 N   0  0  0  0  0  0  0  0  0  0  0  0
    0.8618   -0.2972    0.9392 C   0  0  0  0  0  0  0  0  0  0  0  0
    0.0076   -0.3911   -0.1565 C   0  0  0  0  0  0  0  0  0  0  0  0
    0.0832    0.5225   -1.1975 C   0  0  0  0  0  0  0  0  0  0  0  0
   -0.7256    0.4827   -2.2967 O   0  0  0  0  0  0  0  0  0  0  0  0
   -1.7361   -0.4278   -2.5893 C   0  0  0  0  0  0  0  0  0  0  0  0
   -2.8170   -0.4239   -1.5521 C   0  0  0  0  0  0  0  0  0  0  0  0
   -3.9186   -1.2454   -1.6581 C   0  0  0  0  0  0  0  0  0  0  0  0
   -4.9154   -1.2425   -0.7011 C   0  0  0  0  0  0  0  0  0  0  0  0
   -6.0046   -2.0701   -0.8273 O   0  0  0  0  0  0  0  0  0  0  0  0
   -6.1398   -2.9482   -1.9364 C   0  0  0  0  0  0  0  0  0  0  0  0
   -4.8557   -0.4185    0.4042 C   0  0  0  0  0  0  0  0  0  0  0  0
   -5.8627   -0.4213    1.3634 O   0  0  0  0  0  0  0  0  0  0  0  0
   -5.8652   -1.2572    2.4968 C   0  0  0  0  0  0  0  0  0  0  0  0
   -3.7584    0.4063    0.5186 C   0  0  0  0  0  0  0  0  0  0  0  0
   -3.6641    1.2449    1.6111 O   0  0  0  0  0  0  0  0  0  0  0  0
   -2.5829    2.1108    1.7990 C   0  0  0  0  0  0  0  0  0  0  0  0
   -2.7522    0.4020   -0.4491 C   0  0  0  0  0  0  0  0  0  0  0  0
  1  2  1  0
  2  3  1  0
  3  4  1  0
  4  5  2  0
  5  6  1  0
  6  7  1  0
  7  8  1  0
  8  9  2  0
  9 10  1  0
 10 11  2  0
 11 12  1  0
 11 13  1  0
 13 14  2  0
 14 15  1  0
  6 16  2  0
 16 17  1  0
 17 18  2  0
 18 19  1  0
 19 20  1  0
 20 21  1  0
 21 22  2  0
 22 23  1  0
 23 24  1  0
 24 25  1  0
 23 26  2  0
 26 27  1  0
 27 28  1  0
 26 29  1  0
 29 30  1  0
 30 31  1  0
 29 32  2  0
 18  4  1  0
 32 21  1  0
 14  8  1  0
M  END
>  <zinc_id>  (488) 
ZINC000013472741

>  <ortholog_name>  (488) 
DRTS_PLAFK

>  <gene_name>  (488) 
DRTS_PLAFK

>  <affinity>  (488) 
7.00

>  <chembldocid>  (488) 
17636

>  <title>  (488) 
None

>  <reference.pubmed_id>  (488) 
14711307

>  <reference.doi>  (488) 
None

>  <reference.chembl_id>  (488) 
CHEMBL1148379

>  <reference.journal>  (488) 
J. Med. Chem.

>  <reference.year>  (488) 
2004

$$$$

     RDKit          3D

 32 34  0  0  0  0  0  0  0  0999 V2000
    1.8262    4.3014   -3.4762 C   0  0  0  0  0  0  0  0  0  0  0  0
    2.0191    3.5113   -2.2077 C   0  0  0  0  0  0  0  0  0  0  0  0
    1.1084    2.4556   -2.1713 O   0  0  0  0  0  0  0  0  0  0  0  0
    1.0300    1.5382   -1.1290 C   0  0  0  0  0  0  0  0  0  0  0  0
    1.8592    1.5980   -0.0261 C   0  0  0  0  0  0  0  0  0  0  0  0
    1.8055    0.7069    1.0180 C   0  0  0  0  0  0  0  0  0  0  0  0
    2.7352    0.8203    2.1970 C   0  0  0  0  0  0  0  0  0  0  0  0
    3.9360    0.0055    1.8371 C   0  0  0  0  0  0  0  0  0  0  0  0
    4.1622   -1.2409    2.3753 C   0  0  0  0  0  0  0  0  0  0  0  0
    5.2697   -1.9028    1.9941 N   0  0  0  0  0  0  0  0  0  0  0  0
    6.1662   -1.4126    1.1167 C   0  0  0  0  0  0  0  0  0  0  0  0
    7.3051   -2.2191    0.7947 N   0  0  0  0  0  0  0  0  0  0  0  0
    5.9361   -0.2106    0.6058 N   0  0  0  0  0  0  0  0  0  0  0  0
    4.8410    0.5114    0.9453 C   0  0  0  0  0  0  0  0  0  0  0  0
    4.6457    1.8085    0.3580 N   0  0  0  0  0  0  0  0  0  0  0  0
    0.8618   -0.2972    0.9392 C   0  0  0  0  0  0  0  0  0  0  0  0
    0.0076   -0.3911   -0.1565 C   0  0  0  0  0  0  0  0  0  0  0  0
    0.0832    0.5225   -1.1975 C   0  0  0  0  0  0  0  0  0  0  0  0
   -0.7256    0.4827   -2.2967 O   0  0  0  0  0  0  0  0  0  0  0  0
   -1.7361   -0.4278   -2.5893 C   0  0  0  0  0  0  0  0  0  0  0  0
   -2.8170   -0.4239   -1.5521 C   0  0  0  0  0  0  0  0  0  0  0  0
   -3.9186   -1.2454   -1.6581 C   0  0  0  0  0  0  0  0  0  0  0  0
   -4.9154   -1.2425   -0.7011 C   0  0  0  0  0  0  0  0  0  0  0  0
   -6.0046   -2.0701   -0.8273 O   0  0  0  0  0  0  0  0  0  0  0  0
   -6.1398   -2.9482   -1.9364 C   0  0  0  0  0  0  0  0  0  0  0  0
   -4.8557   -0.4185    0.4042 C   0  0  0  0  0  0  0  0  0  0  0  0
   -5.8627   -0.4213    1.3634 O   0  0  0  0  0  0  0  0  0  0  0  0
   -5.8652   -1.2572    2.4968 C   0  0  0  0  0  0  0  0  0  0  0  0
   -3.7584    0.4063    0.5186 C   0  0  0  0  0  0  0  0  0  0  0  0
   -3.6641    1.2449    1.6111 O   0  0  0  0  0  0  0  0  0  0  0  0
   -2.5829    2.1108    1.7990 C   0  0  0  0  0  0  0  0  0  0  0  0
   -2.7522    0.4020   -0.4491 C   0  0  0  0  0  0  0  0  0  0  0  0
  1  2  1  0
  2  3  1  0
  3  4  1  0
  4  5  2  0
  5  6  1  0
  6  7  1  0
  7  8  1  0
  8  9  2  0
  9 10  1  0
 10 11  2  0
 11 12  1  0
 11 13  1  0
 13 14  2  0
 14 15  1  0
  6 16  2  0
 16 17  1  0
 17 18  2  0
 18 19  1  0
 19 20  1  0
 20 21  1  0
 21 22  2  0
 22 23  1  0
 23 24  1  0
 24 25  1  0
 23 26  2  0
 26 27  1  0
 27 28  1  0
 26 29  1  0
 29 30  1  0
 30 31  1  0
 29 32  2  0
 18  4  1  0
 32 21  1  0
 14  8  1  0
M  END
>  <zinc_id>  (489) 
ZINC000013472741

>  <ortholog_name>  (489) 
DRTS_PLAFK

>  <gene_name>  (489) 
DRTS_PLAFK

>  <affinity>  (489) 
6.96

>  <chembldocid>  (489) 
17636

>  <title>  (489) 
None

>  <reference.pubmed_id>  (489) 
14711307

>  <reference.doi>  (489) 
None

>  <reference.chembl_id>  (489) 
CHEMBL1148379

>  <reference.journal>  (489) 
J. Med. Chem.

>  <reference.year>  (489) 
2004

$$$$

     RDKit          3D

 32 34  0  0  0  0  0  0  0  0999 V2000
    1.8262    4.3014   -3.4762 C   0  0  0  0  0  0  0  0  0  0  0  0
    2.0191    3.5113   -2.2077 C   0  0  0  0  0  0  0  0  0  0  0  0
    1.1084    2.4556   -2.1713 O   0  0  0  0  0  0  0  0  0  0  0  0
    1.0300    1.5382   -1.1290 C   0  0  0  0  0  0  0  0  0  0  0  0
    1.8592    1.5980   -0.0261 C   0  0  0  0  0  0  0  0  0  0  0  0
    1.8055    0.7069    1.0180 C   0  0  0  0  0  0  0  0  0  0  0  0
    2.7352    0.8203    2.1970 C   0  0  0  0  0  0  0  0  0  0  0  0
    3.9360    0.0055    1.8371 C   0  0  0  0  0  0  0  0  0  0  0  0
    4.1622   -1.2409    2.3753 C   0  0  0  0  0  0  0  0  0  0  0  0
    5.2697   -1.9028    1.9941 N   0  0  0  0  0  0  0  0  0  0  0  0
    6.1662   -1.4126    1.1167 C   0  0  0  0  0  0  0  0  0  0  0  0
    7.3051   -2.2191    0.7947 N   0  0  0  0  0  0  0  0  0  0  0  0
    5.9361   -0.2106    0.6058 N   0  0  0  0  0  0  0  0  0  0  0  0
    4.8410    0.5114    0.9453 C   0  0  0  0  0  0  0  0  0  0  0  0
    4.6457    1.8085    0.3580 N   0  0  0  0  0  0  0  0  0  0  0  0
    0.8618   -0.2972    0.9392 C   0  0  0  0  0  0  0  0  0  0  0  0
    0.0076   -0.3911   -0.1565 C   0  0  0  0  0  0  0  0  0  0  0  0
    0.0832    0.5225   -1.1975 C   0  0  0  0  0  0  0  0  0  0  0  0
   -0.7256    0.4827   -2.2967 O   0  0  0  0  0  0  0  0  0  0  0  0
   -1.7361   -0.4278   -2.5893 C   0  0  0  0  0  0  0  0  0  0  0  0
   -2.8170   -0.4239   -1.5521 C   0  0  0  0  0  0  0  0  0  0  0  0
   -3.9186   -1.2454   -1.6581 C   0  0  0  0  0  0  0  0  0  0  0  0
   -4.9154   -1.2425   -0.7011 C   0  0  0  0  0  0  0  0  0  0  0  0
   -6.0046   -2.0701   -0.8273 O   0  0  0  0  0  0  0  0  0  0  0  0
   -6.1398   -2.9482   -1.9364 C   0  0  0  0  0  0  0  0  0  0  0  0
   -4.8557   -0.4185    0.4042 C   0  0  0  0  0  0  0  0  0  0  0  0
   -5.8627   -0.4213    1.3634 O   0  0  0  0  0  0  0  0  0  0  0  0
   -5.8652   -1.2572    2.4968 C   0  0  0  0  0  0  0  0  0  0  0  0
   -3.7584    0.4063    0.5186 C   0  0  0  0  0  0  0  0  0  0  0  0
   -3.6641    1.2449    1.6111 O   0  0  0  0  0  0  0  0  0  0  0  0
   -2.5829    2.1108    1.7990 C   0  0  0  0  0  0  0  0  0  0  0  0
   -2.7522    0.4020   -0.4491 C   0  0  0  0  0  0  0  0  0  0  0  0
  1  2  1  0
  2  3  1  0
  3  4  1  0
  4  5  2  0
  5  6  1  0
  6  7  1  0
  7  8  1  0
  8  9  2  0
  9 10  1  0
 10 11  2  0
 11 12  1  0
 11 13  1  0
 13 14  2  0
 14 15  1  0
  6 16  2  0
 16 17  1  0
 17 18  2  0
 18 19  1  0
 19 20  1  0
 20 21  1  0
 21 22  2  0
 22 23  1  0
 23 24  1  0
 24 25  1  0
 23 26  2  0
 26 27  1  0
 27 28  1  0
 26 29  1  0
 29 30  1  0
 30 31  1  0
 29 32  2  0
 18  4  1  0
 32 21  1  0
 14  8  1  0
M  END
>  <zinc_id>  (490) 
ZINC000013472741

>  <ortholog_name>  (490) 
DRTS_PLAFK

>  <gene_name>  (490) 
DRTS_PLAFK

>  <affinity>  (490) 
6.92

>  <chembldocid>  (490) 
17636

>  <title>  (490) 
None

>  <reference.pubmed_id>  (490) 
14711307

>  <reference.doi>  (490) 
None

>  <reference.chembl_id>  (490) 
CHEMBL1148379

>  <reference.journal>  (490) 
J. Med. Chem.

>  <reference.year>  (490) 
2004

$$$$

     RDKit          3D

 32 34  0  0  0  0  0  0  0  0999 V2000
    1.8262    4.3014   -3.4762 C   0  0  0  0  0  0  0  0  0  0  0  0
    2.0191    3.5113   -2.2077 C   0  0  0  0  0  0  0  0  0  0  0  0
    1.1084    2.4556   -2.1713 O   0  0  0  0  0  0  0  0  0  0  0  0
    1.0300    1.5382   -1.1290 C   0  0  0  0  0  0  0  0  0  0  0  0
    1.8592    1.5980   -0.0261 C   0  0  0  0  0  0  0  0  0  0  0  0
    1.8055    0.7069    1.0180 C   0  0  0  0  0  0  0  0  0  0  0  0
    2.7352    0.8203    2.1970 C   0  0  0  0  0  0  0  0  0  0  0  0
    3.9360    0.0055    1.8371 C   0  0  0  0  0  0  0  0  0  0  0  0
    4.1622   -1.2409    2.3753 C   0  0  0  0  0  0  0  0  0  0  0  0
    5.2697   -1.9028    1.9941 N   0  0  0  0  0  0  0  0  0  0  0  0
    6.1662   -1.4126    1.1167 C   0  0  0  0  0  0  0  0  0  0  0  0
    7.3051   -2.2191    0.7947 N   0  0  0  0  0  0  0  0  0  0  0  0
    5.9361   -0.2106    0.6058 N   0  0  0  0  0  0  0  0  0  0  0  0
    4.8410    0.5114    0.9453 C   0  0  0  0  0  0  0  0  0  0  0  0
    4.6457    1.8085    0.3580 N   0  0  0  0  0  0  0  0  0  0  0  0
    0.8618   -0.2972    0.9392 C   0  0  0  0  0  0  0  0  0  0  0  0
    0.0076   -0.3911   -0.1565 C   0  0  0  0  0  0  0  0  0  0  0  0
    0.0832    0.5225   -1.1975 C   0  0  0  0  0  0  0  0  0  0  0  0
   -0.7256    0.4827   -2.2967 O   0  0  0  0  0  0  0  0  0  0  0  0
   -1.7361   -0.4278   -2.5893 C   0  0  0  0  0  0  0  0  0  0  0  0
   -2.8170   -0.4239   -1.5521 C   0  0  0  0  0  0  0  0  0  0  0  0
   -3.9186   -1.2454   -1.6581 C   0  0  0  0  0  0  0  0  0  0  0  0
   -4.9154   -1.2425   -0.7011 C   0  0  0  0  0  0  0  0  0  0  0  0
   -6.0046   -2.0701   -0.8273 O   0  0  0  0  0  0  0  0  0  0  0  0
   -6.1398   -2.9482   -1.9364 C   0  0  0  0  0  0  0  0  0  0  0  0
   -4.8557   -0.4185    0.4042 C   0  0  0  0  0  0  0  0  0  0  0  0
   -5.8627   -0.4213    1.3634 O   0  0  0  0  0  0  0  0  0  0  0  0
   -5.8652   -1.2572    2.4968 C   0  0  0  0  0  0  0  0  0  0  0  0
   -3.7584    0.4063    0.5186 C   0  0  0  0  0  0  0  0  0  0  0  0
   -3.6641    1.2449    1.6111 O   0  0  0  0  0  0  0  0  0  0  0  0
   -2.5829    2.1108    1.7990 C   0  0  0  0  0  0  0  0  0  0  0  0
   -2.7522    0.4020   -0.4491 C   0  0  0  0  0  0  0  0  0  0  0  0
  1  2  1  0
  2  3  1  0
  3  4  1  0
  4  5  2  0
  5  6  1  0
  6  7  1  0
  7  8  1  0
  8  9  2  0
  9 10  1  0
 10 11  2  0
 11 12  1  0
 11 13  1  0
 13 14  2  0
 14 15  1  0
  6 16  2  0
 16 17  1  0
 17 18  2  0
 18 19  1  0
 19 20  1  0
 20 21  1  0
 21 22  2  0
 22 23  1  0
 23 24  1  0
 24 25  1  0
 23 26  2  0
 26 27  1  0
 27 28  1  0
 26 29  1  0
 29 30  1  0
 30 31  1  0
 29 32  2  0
 18  4  1  0
 32 21  1  0
 14  8  1  0
M  END
>  <zinc_id>  (491) 
ZINC000013472741

>  <ortholog_name>  (491) 
DRTS_PLAFK

>  <gene_name>  (491) 
DRTS_PLAFK

>  <affinity>  (491) 
8.66

>  <chembldocid>  (491) 
16871

>  <title>  (491) 
None

>  <reference.pubmed_id>  (491) 
11881993

>  <reference.doi>  (491) 
None

>  <reference.chembl_id>  (491) 
CHEMBL1135602

>  <reference.journal>  (491) 
J. Med. Chem.

>  <reference.year>  (491) 
2002

$$$$

     RDKit          3D

 32 34  0  0  0  0  0  0  0  0999 V2000
    1.8262    4.3014   -3.4762 C   0  0  0  0  0  0  0  0  0  0  0  0
    2.0191    3.5113   -2.2077 C   0  0  0  0  0  0  0  0  0  0  0  0
    1.1084    2.4556   -2.1713 O   0  0  0  0  0  0  0  0  0  0  0  0
    1.0300    1.5382   -1.1290 C   0  0  0  0  0  0  0  0  0  0  0  0
    1.8592    1.5980   -0.0261 C   0  0  0  0  0  0  0  0  0  0  0  0
    1.8055    0.7069    1.0180 C   0  0  0  0  0  0  0  0  0  0  0  0
    2.7352    0.8203    2.1970 C   0  0  0  0  0  0  0  0  0  0  0  0
    3.9360    0.0055    1.8371 C   0  0  0  0  0  0  0  0  0  0  0  0
    4.1622   -1.2409    2.3753 C   0  0  0  0  0  0  0  0  0  0  0  0
    5.2697   -1.9028    1.9941 N   0  0  0  0  0  0  0  0  0  0  0  0
    6.1662   -1.4126    1.1167 C   0  0  0  0  0  0  0  0  0  0  0  0
    7.3051   -2.2191    0.7947 N   0  0  0  0  0  0  0  0  0  0  0  0
    5.9361   -0.2106    0.6058 N   0  0  0  0  0  0  0  0  0  0  0  0
    4.8410    0.5114    0.9453 C   0  0  0  0  0  0  0  0  0  0  0  0
    4.6457    1.8085    0.3580 N   0  0  0  0  0  0  0  0  0  0  0  0
    0.8618   -0.2972    0.9392 C   0  0  0  0  0  0  0  0  0  0  0  0
    0.0076   -0.3911   -0.1565 C   0  0  0  0  0  0  0  0  0  0  0  0
    0.0832    0.5225   -1.1975 C   0  0  0  0  0  0  0  0  0  0  0  0
   -0.7256    0.4827   -2.2967 O   0  0  0  0  0  0  0  0  0  0  0  0
   -1.7361   -0.4278   -2.5893 C   0  0  0  0  0  0  0  0  0  0  0  0
   -2.8170   -0.4239   -1.5521 C   0  0  0  0  0  0  0  0  0  0  0  0
   -3.9186   -1.2454   -1.6581 C   0  0  0  0  0  0  0  0  0  0  0  0
   -4.9154   -1.2425   -0.7011 C   0  0  0  0  0  0  0  0  0  0  0  0
   -6.0046   -2.0701   -0.8273 O   0  0  0  0  0  0  0  0  0  0  0  0
   -6.1398   -2.9482   -1.9364 C   0  0  0  0  0  0  0  0  0  0  0  0
   -4.8557   -0.4185    0.4042 C   0  0  0  0  0  0  0  0  0  0  0  0
   -5.8627   -0.4213    1.3634 O   0  0  0  0  0  0  0  0  0  0  0  0
   -5.8652   -1.2572    2.4968 C   0  0  0  0  0  0  0  0  0  0  0  0
   -3.7584    0.4063    0.5186 C   0  0  0  0  0  0  0  0  0  0  0  0
   -3.6641    1.2449    1.6111 O   0  0  0  0  0  0  0  0  0  0  0  0
   -2.5829    2.1108    1.7990 C   0  0  0  0  0  0  0  0  0  0  0  0
   -2.7522    0.4020   -0.4491 C   0  0  0  0  0  0  0  0  0  0  0  0
  1  2  1  0
  2  3  1  0
  3  4  1  0
  4  5  2  0
  5  6  1  0
  6  7  1  0
  7  8  1  0
  8  9  2  0
  9 10  1  0
 10 11  2  0
 11 12  1  0
 11 13  1  0
 13 14  2  0
 14 15  1  0
  6 16  2  0
 16 17  1  0
 17 18  2  0
 18 19  1  0
 19 20  1  0
 20 21  1  0
 21 22  2  0
 22 23  1  0
 23 24  1  0
 24 25  1  0
 23 26  2  0
 26 27  1  0
 27 28  1  0
 26 29  1  0
 29 30  1  0
 30 31  1  0
 29 32  2  0
 18  4  1  0
 32 21  1  0
 14  8  1  0
M  END
>  <zinc_id>  (492) 
ZINC000013472741

>  <ortholog_name>  (492) 
DRTS_PLAFK

>  <gene_name>  (492) 
DRTS_PLAFK

>  <affinity>  (492) 
8.66

>  <chembldocid>  (492) 
17636

>  <title>  (492) 
None

>  <reference.pubmed_id>  (492) 
14711307

>  <reference.doi>  (492) 
None

>  <reference.chembl_id>  (492) 
CHEMBL1148379

>  <reference.journal>  (492) 
J. Med. Chem.

>  <reference.year>  (492) 
2004

$$$$

     RDKit          3D

 32 34  0  0  0  0  0  0  0  0999 V2000
    1.8262    4.3014   -3.4762 C   0  0  0  0  0  0  0  0  0  0  0  0
    2.0191    3.5113   -2.2077 C   0  0  0  0  0  0  0  0  0  0  0  0
    1.1084    2.4556   -2.1713 O   0  0  0  0  0  0  0  0  0  0  0  0
    1.0300    1.5382   -1.1290 C   0  0  0  0  0  0  0  0  0  0  0  0
    1.8592    1.5980   -0.0261 C   0  0  0  0  0  0  0  0  0  0  0  0
    1.8055    0.7069    1.0180 C   0  0  0  0  0  0  0  0  0  0  0  0
    2.7352    0.8203    2.1970 C   0  0  0  0  0  0  0  0  0  0  0  0
    3.9360    0.0055    1.8371 C   0  0  0  0  0  0  0  0  0  0  0  0
    4.1622   -1.2409    2.3753 C   0  0  0  0  0  0  0  0  0  0  0  0
    5.2697   -1.9028    1.9941 N   0  0  0  0  0  0  0  0  0  0  0  0
    6.1662   -1.4126    1.1167 C   0  0  0  0  0  0  0  0  0  0  0  0
    7.3051   -2.2191    0.7947 N   0  0  0  0  0  0  0  0  0  0  0  0
    5.9361   -0.2106    0.6058 N   0  0  0  0  0  0  0  0  0  0  0  0
    4.8410    0.5114    0.9453 C   0  0  0  0  0  0  0  0  0  0  0  0
    4.6457    1.8085    0.3580 N   0  0  0  0  0  0  0  0  0  0  0  0
    0.8618   -0.2972    0.9392 C   0  0  0  0  0  0  0  0  0  0  0  0
    0.0076   -0.3911   -0.1565 C   0  0  0  0  0  0  0  0  0  0  0  0
    0.0832    0.5225   -1.1975 C   0  0  0  0  0  0  0  0  0  0  0  0
   -0.7256    0.4827   -2.2967 O   0  0  0  0  0  0  0  0  0  0  0  0
   -1.7361   -0.4278   -2.5893 C   0  0  0  0  0  0  0  0  0  0  0  0
   -2.8170   -0.4239   -1.5521 C   0  0  0  0  0  0  0  0  0  0  0  0
   -3.9186   -1.2454   -1.6581 C   0  0  0  0  0  0  0  0  0  0  0  0
   -4.9154   -1.2425   -0.7011 C   0  0  0  0  0  0  0  0  0  0  0  0
   -6.0046   -2.0701   -0.8273 O   0  0  0  0  0  0  0  0  0  0  0  0
   -6.1398   -2.9482   -1.9364 C   0  0  0  0  0  0  0  0  0  0  0  0
   -4.8557   -0.4185    0.4042 C   0  0  0  0  0  0  0  0  0  0  0  0
   -5.8627   -0.4213    1.3634 O   0  0  0  0  0  0  0  0  0  0  0  0
   -5.8652   -1.2572    2.4968 C   0  0  0  0  0  0  0  0  0  0  0  0
   -3.7584    0.4063    0.5186 C   0  0  0  0  0  0  0  0  0  0  0  0
   -3.6641    1.2449    1.6111 O   0  0  0  0  0  0  0  0  0  0  0  0
   -2.5829    2.1108    1.7990 C   0  0  0  0  0  0  0  0  0  0  0  0
   -2.7522    0.4020   -0.4491 C   0  0  0  0  0  0  0  0  0  0  0  0
  1  2  1  0
  2  3  1  0
  3  4  1  0
  4  5  2  0
  5  6  1  0
  6  7  1  0
  7  8  1  0
  8  9  2  0
  9 10  1  0
 10 11  2  0
 11 12  1  0
 11 13  1  0
 13 14  2  0
 14 15  1  0
  6 16  2  0
 16 17  1  0
 17 18  2  0
 18 19  1  0
 19 20  1  0
 20 21  1  0
 21 22  2  0
 22 23  1  0
 23 24  1  0
 24 25  1  0
 23 26  2  0
 26 27  1  0
 27 28  1  0
 26 29  1  0
 29 30  1  0
 30 31  1  0
 29 32  2  0
 18  4  1  0
 32 21  1  0
 14  8  1  0
M  END
>  <zinc_id>  (493) 
ZINC000013472741

>  <ortholog_name>  (493) 
DRTS_PLAFK

>  <gene_name>  (493) 
DRTS_PLAFK

>  <affinity>  (493) 
7.61

>  <chembldocid>  (493) 
17636

>  <title>  (493) 
None

>  <reference.pubmed_id>  (493) 
14711307

>  <reference.doi>  (493) 
None

>  <reference.chembl_id>  (493) 
CHEMBL1148379

>  <reference.journal>  (493) 
J. Med. Chem.

>  <reference.year>  (493) 
2004

$$$$

     RDKit          3D

 32 34  0  0  0  0  0  0  0  0999 V2000
    1.8262    4.3014   -3.4762 C   0  0  0  0  0  0  0  0  0  0  0  0
    2.0191    3.5113   -2.2077 C   0  0  0  0  0  0  0  0  0  0  0  0
    1.1084    2.4556   -2.1713 O   0  0  0  0  0  0  0  0  0  0  0  0
    1.0300    1.5382   -1.1290 C   0  0  0  0  0  0  0  0  0  0  0  0
    1.8592    1.5980   -0.0261 C   0  0  0  0  0  0  0  0  0  0  0  0
    1.8055    0.7069    1.0180 C   0  0  0  0  0  0  0  0  0  0  0  0
    2.7352    0.8203    2.1970 C   0  0  0  0  0  0  0  0  0  0  0  0
    3.9360    0.0055    1.8371 C   0  0  0  0  0  0  0  0  0  0  0  0
    4.1622   -1.2409    2.3753 C   0  0  0  0  0  0  0  0  0  0  0  0
    5.2697   -1.9028    1.9941 N   0  0  0  0  0  0  0  0  0  0  0  0
    6.1662   -1.4126    1.1167 C   0  0  0  0  0  0  0  0  0  0  0  0
    7.3051   -2.2191    0.7947 N   0  0  0  0  0  0  0  0  0  0  0  0
    5.9361   -0.2106    0.6058 N   0  0  0  0  0  0  0  0  0  0  0  0
    4.8410    0.5114    0.9453 C   0  0  0  0  0  0  0  0  0  0  0  0
    4.6457    1.8085    0.3580 N   0  0  0  0  0  0  0  0  0  0  0  0
    0.8618   -0.2972    0.9392 C   0  0  0  0  0  0  0  0  0  0  0  0
    0.0076   -0.3911   -0.1565 C   0  0  0  0  0  0  0  0  0  0  0  0
    0.0832    0.5225   -1.1975 C   0  0  0  0  0  0  0  0  0  0  0  0
   -0.7256    0.4827   -2.2967 O   0  0  0  0  0  0  0  0  0  0  0  0
   -1.7361   -0.4278   -2.5893 C   0  0  0  0  0  0  0  0  0  0  0  0
   -2.8170   -0.4239   -1.5521 C   0  0  0  0  0  0  0  0  0  0  0  0
   -3.9186   -1.2454   -1.6581 C   0  0  0  0  0  0  0  0  0  0  0  0
   -4.9154   -1.2425   -0.7011 C   0  0  0  0  0  0  0  0  0  0  0  0
   -6.0046   -2.0701   -0.8273 O   0  0  0  0  0  0  0  0  0  0  0  0
   -6.1398   -2.9482   -1.9364 C   0  0  0  0  0  0  0  0  0  0  0  0
   -4.8557   -0.4185    0.4042 C   0  0  0  0  0  0  0  0  0  0  0  0
   -5.8627   -0.4213    1.3634 O   0  0  0  0  0  0  0  0  0  0  0  0
   -5.8652   -1.2572    2.4968 C   0  0  0  0  0  0  0  0  0  0  0  0
   -3.7584    0.4063    0.5186 C   0  0  0  0  0  0  0  0  0  0  0  0
   -3.6641    1.2449    1.6111 O   0  0  0  0  0  0  0  0  0  0  0  0
   -2.5829    2.1108    1.7990 C   0  0  0  0  0  0  0  0  0  0  0  0
   -2.7522    0.4020   -0.4491 C   0  0  0  0  0  0  0  0  0  0  0  0
  1  2  1  0
  2  3  1  0
  3  4  1  0
  4  5  2  0
  5  6  1  0
  6  7  1  0
  7  8  1  0
  8  9  2  0
  9 10  1  0
 10 11  2  0
 11 12  1  0
 11 13  1  0
 13 14  2  0
 14 15  1  0
  6 16  2  0
 16 17  1  0
 17 18  2  0
 18 19  1  0
 19 20  1  0
 20 21  1  0
 21 22  2  0
 22 23  1  0
 23 24  1  0
 24 25  1  0
 23 26  2  0
 26 27  1  0
 27 28  1  0
 26 29  1  0
 29 30  1  0
 30 31  1  0
 29 32  2  0
 18  4  1  0
 32 21  1  0
 14  8  1  0
M  END
>  <zinc_id>  (494) 
ZINC000013472741

>  <ortholog_name>  (494) 
DRTS_PLAFK

>  <gene_name>  (494) 
DRTS_PLAFK

>  <affinity>  (494) 
7.40

>  <chembldocid>  (494) 
17636

>  <title>  (494) 
None

>  <reference.pubmed_id>  (494) 
14711307

>  <reference.doi>  (494) 
None

>  <reference.chembl_id>  (494) 
CHEMBL1148379

>  <reference.journal>  (494) 
J. Med. Chem.

>  <reference.year>  (494) 
2004

$$$$

     RDKit          3D

 32 34  0  0  0  0  0  0  0  0999 V2000
    1.8262    4.3014   -3.4762 C   0  0  0  0  0  0  0  0  0  0  0  0
    2.0191    3.5113   -2.2077 C   0  0  0  0  0  0  0  0  0  0  0  0
    1.1084    2.4556   -2.1713 O   0  0  0  0  0  0  0  0  0  0  0  0
    1.0300    1.5382   -1.1290 C   0  0  0  0  0  0  0  0  0  0  0  0
    1.8592    1.5980   -0.0261 C   0  0  0  0  0  0  0  0  0  0  0  0
    1.8055    0.7069    1.0180 C   0  0  0  0  0  0  0  0  0  0  0  0
    2.7352    0.8203    2.1970 C   0  0  0  0  0  0  0  0  0  0  0  0
    3.9360    0.0055    1.8371 C   0  0  0  0  0  0  0  0  0  0  0  0
    4.1622   -1.2409    2.3753 C   0  0  0  0  0  0  0  0  0  0  0  0
    5.2697   -1.9028    1.9941 N   0  0  0  0  0  0  0  0  0  0  0  0
    6.1662   -1.4126    1.1167 C   0  0  0  0  0  0  0  0  0  0  0  0
    7.3051   -2.2191    0.7947 N   0  0  0  0  0  0  0  0  0  0  0  0
    5.9361   -0.2106    0.6058 N   0  0  0  0  0  0  0  0  0  0  0  0
    4.8410    0.5114    0.9453 C   0  0  0  0  0  0  0  0  0  0  0  0
    4.6457    1.8085    0.3580 N   0  0  0  0  0  0  0  0  0  0  0  0
    0.8618   -0.2972    0.9392 C   0  0  0  0  0  0  0  0  0  0  0  0
    0.0076   -0.3911   -0.1565 C   0  0  0  0  0  0  0  0  0  0  0  0
    0.0832    0.5225   -1.1975 C   0  0  0  0  0  0  0  0  0  0  0  0
   -0.7256    0.4827   -2.2967 O   0  0  0  0  0  0  0  0  0  0  0  0
   -1.7361   -0.4278   -2.5893 C   0  0  0  0  0  0  0  0  0  0  0  0
   -2.8170   -0.4239   -1.5521 C   0  0  0  0  0  0  0  0  0  0  0  0
   -3.9186   -1.2454   -1.6581 C   0  0  0  0  0  0  0  0  0  0  0  0
   -4.9154   -1.2425   -0.7011 C   0  0  0  0  0  0  0  0  0  0  0  0
   -6.0046   -2.0701   -0.8273 O   0  0  0  0  0  0  0  0  0  0  0  0
   -6.1398   -2.9482   -1.9364 C   0  0  0  0  0  0  0  0  0  0  0  0
   -4.8557   -0.4185    0.4042 C   0  0  0  0  0  0  0  0  0  0  0  0
   -5.8627   -0.4213    1.3634 O   0  0  0  0  0  0  0  0  0  0  0  0
   -5.8652   -1.2572    2.4968 C   0  0  0  0  0  0  0  0  0  0  0  0
   -3.7584    0.4063    0.5186 C   0  0  0  0  0  0  0  0  0  0  0  0
   -3.6641    1.2449    1.6111 O   0  0  0  0  0  0  0  0  0  0  0  0
   -2.5829    2.1108    1.7990 C   0  0  0  0  0  0  0  0  0  0  0  0
   -2.7522    0.4020   -0.4491 C   0  0  0  0  0  0  0  0  0  0  0  0
  1  2  1  0
  2  3  1  0
  3  4  1  0
  4  5  2  0
  5  6  1  0
  6  7  1  0
  7  8  1  0
  8  9  2  0
  9 10  1  0
 10 11  2  0
 11 12  1  0
 11 13  1  0
 13 14  2  0
 14 15  1  0
  6 16  2  0
 16 17  1  0
 17 18  2  0
 18 19  1  0
 19 20  1  0
 20 21  1  0
 21 22  2  0
 22 23  1  0
 23 24  1  0
 24 25  1  0
 23 26  2  0
 26 27  1  0
 27 28  1  0
 26 29  1  0
 29 30  1  0
 30 31  1  0
 29 32  2  0
 18  4  1  0
 32 21  1  0
 14  8  1  0
M  END
>  <zinc_id>  (495) 
ZINC000013472741

>  <ortholog_name>  (495) 
DRTS_PLAFK

>  <gene_name>  (495) 
DRTS_PLAFK

>  <affinity>  (495) 
5.30

>  <chembldocid>  (495) 
16871

>  <title>  (495) 
None

>  <reference.pubmed_id>  (495) 
11881993

>  <reference.doi>  (495) 
None

>  <reference.chembl_id>  (495) 
CHEMBL1135602

>  <reference.journal>  (495) 
J. Med. Chem.

>  <reference.year>  (495) 
2002

$$$$

     RDKit          3D

 32 34  0  0  0  0  0  0  0  0999 V2000
    1.8262    4.3014   -3.4762 C   0  0  0  0  0  0  0  0  0  0  0  0
    2.0191    3.5113   -2.2077 C   0  0  0  0  0  0  0  0  0  0  0  0
    1.1084    2.4556   -2.1713 O   0  0  0  0  0  0  0  0  0  0  0  0
    1.0300    1.5382   -1.1290 C   0  0  0  0  0  0  0  0  0  0  0  0
    1.8592    1.5980   -0.0261 C   0  0  0  0  0  0  0  0  0  0  0  0
    1.8055    0.7069    1.0180 C   0  0  0  0  0  0  0  0  0  0  0  0
    2.7352    0.8203    2.1970 C   0  0  0  0  0  0  0  0  0  0  0  0
    3.9360    0.0055    1.8371 C   0  0  0  0  0  0  0  0  0  0  0  0
    4.1622   -1.2409    2.3753 C   0  0  0  0  0  0  0  0  0  0  0  0
    5.2697   -1.9028    1.9941 N   0  0  0  0  0  0  0  0  0  0  0  0
    6.1662   -1.4126    1.1167 C   0  0  0  0  0  0  0  0  0  0  0  0
    7.3051   -2.2191    0.7947 N   0  0  0  0  0  0  0  0  0  0  0  0
    5.9361   -0.2106    0.6058 N   0  0  0  0  0  0  0  0  0  0  0  0
    4.8410    0.5114    0.9453 C   0  0  0  0  0  0  0  0  0  0  0  0
    4.6457    1.8085    0.3580 N   0  0  0  0  0  0  0  0  0  0  0  0
    0.8618   -0.2972    0.9392 C   0  0  0  0  0  0  0  0  0  0  0  0
    0.0076   -0.3911   -0.1565 C   0  0  0  0  0  0  0  0  0  0  0  0
    0.0832    0.5225   -1.1975 C   0  0  0  0  0  0  0  0  0  0  0  0
   -0.7256    0.4827   -2.2967 O   0  0  0  0  0  0  0  0  0  0  0  0
   -1.7361   -0.4278   -2.5893 C   0  0  0  0  0  0  0  0  0  0  0  0
   -2.8170   -0.4239   -1.5521 C   0  0  0  0  0  0  0  0  0  0  0  0
   -3.9186   -1.2454   -1.6581 C   0  0  0  0  0  0  0  0  0  0  0  0
   -4.9154   -1.2425   -0.7011 C   0  0  0  0  0  0  0  0  0  0  0  0
   -6.0046   -2.0701   -0.8273 O   0  0  0  0  0  0  0  0  0  0  0  0
   -6.1398   -2.9482   -1.9364 C   0  0  0  0  0  0  0  0  0  0  0  0
   -4.8557   -0.4185    0.4042 C   0  0  0  0  0  0  0  0  0  0  0  0
   -5.8627   -0.4213    1.3634 O   0  0  0  0  0  0  0  0  0  0  0  0
   -5.8652   -1.2572    2.4968 C   0  0  0  0  0  0  0  0  0  0  0  0
   -3.7584    0.4063    0.5186 C   0  0  0  0  0  0  0  0  0  0  0  0
   -3.6641    1.2449    1.6111 O   0  0  0  0  0  0  0  0  0  0  0  0
   -2.5829    2.1108    1.7990 C   0  0  0  0  0  0  0  0  0  0  0  0
   -2.7522    0.4020   -0.4491 C   0  0  0  0  0  0  0  0  0  0  0  0
  1  2  1  0
  2  3  1  0
  3  4  1  0
  4  5  2  0
  5  6  1  0
  6  7  1  0
  7  8  1  0
  8  9  2  0
  9 10  1  0
 10 11  2  0
 11 12  1  0
 11 13  1  0
 13 14  2  0
 14 15  1  0
  6 16  2  0
 16 17  1  0
 17 18  2  0
 18 19  1  0
 19 20  1  0
 20 21  1  0
 21 22  2  0
 22 23  1  0
 23 24  1  0
 24 25  1  0
 23 26  2  0
 26 27  1  0
 27 28  1  0
 26 29  1  0
 29 30  1  0
 30 31  1  0
 29 32  2  0
 18  4  1  0
 32 21  1  0
 14  8  1  0
M  END
>  <zinc_id>  (496) 
ZINC000013472741

>  <ortholog_name>  (496) 
DRTS_PLAFK

>  <gene_name>  (496) 
DRTS_PLAFK

>  <affinity>  (496) 
5.30

>  <chembldocid>  (496) 
17636

>  <title>  (496) 
None

>  <reference.pubmed_id>  (496) 
14711307

>  <reference.doi>  (496) 
None

>  <reference.chembl_id>  (496) 
CHEMBL1148379

>  <reference.journal>  (496) 
J. Med. Chem.

>  <reference.year>  (496) 
2004

$$$$

     RDKit          3D

 32 34  0  0  0  0  0  0  0  0999 V2000
    1.8262    4.3014   -3.4762 C   0  0  0  0  0  0  0  0  0  0  0  0
    2.0191    3.5113   -2.2077 C   0  0  0  0  0  0  0  0  0  0  0  0
    1.1084    2.4556   -2.1713 O   0  0  0  0  0  0  0  0  0  0  0  0
    1.0300    1.5382   -1.1290 C   0  0  0  0  0  0  0  0  0  0  0  0
    1.8592    1.5980   -0.0261 C   0  0  0  0  0  0  0  0  0  0  0  0
    1.8055    0.7069    1.0180 C   0  0  0  0  0  0  0  0  0  0  0  0
    2.7352    0.8203    2.1970 C   0  0  0  0  0  0  0  0  0  0  0  0
    3.9360    0.0055    1.8371 C   0  0  0  0  0  0  0  0  0  0  0  0
    4.1622   -1.2409    2.3753 C   0  0  0  0  0  0  0  0  0  0  0  0
    5.2697   -1.9028    1.9941 N   0  0  0  0  0  0  0  0  0  0  0  0
    6.1662   -1.4126    1.1167 C   0  0  0  0  0  0  0  0  0  0  0  0
    7.3051   -2.2191    0.7947 N   0  0  0  0  0  0  0  0  0  0  0  0
    5.9361   -0.2106    0.6058 N   0  0  0  0  0  0  0  0  0  0  0  0
    4.8410    0.5114    0.9453 C   0  0  0  0  0  0  0  0  0  0  0  0
    4.6457    1.8085    0.3580 N   0  0  0  0  0  0  0  0  0  0  0  0
    0.8618   -0.2972    0.9392 C   0  0  0  0  0  0  0  0  0  0  0  0
    0.0076   -0.3911   -0.1565 C   0  0  0  0  0  0  0  0  0  0  0  0
    0.0832    0.5225   -1.1975 C   0  0  0  0  0  0  0  0  0  0  0  0
   -0.7256    0.4827   -2.2967 O   0  0  0  0  0  0  0  0  0  0  0  0
   -1.7361   -0.4278   -2.5893 C   0  0  0  0  0  0  0  0  0  0  0  0
   -2.8170   -0.4239   -1.5521 C   0  0  0  0  0  0  0  0  0  0  0  0
   -3.9186   -1.2454   -1.6581 C   0  0  0  0  0  0  0  0  0  0  0  0
   -4.9154   -1.2425   -0.7011 C   0  0  0  0  0  0  0  0  0  0  0  0
   -6.0046   -2.0701   -0.8273 O   0  0  0  0  0  0  0  0  0  0  0  0
   -6.1398   -2.9482   -1.9364 C   0  0  0  0  0  0  0  0  0  0  0  0
   -4.8557   -0.4185    0.4042 C   0  0  0  0  0  0  0  0  0  0  0  0
   -5.8627   -0.4213    1.3634 O   0  0  0  0  0  0  0  0  0  0  0  0
   -5.8652   -1.2572    2.4968 C   0  0  0  0  0  0  0  0  0  0  0  0
   -3.7584    0.4063    0.5186 C   0  0  0  0  0  0  0  0  0  0  0  0
   -3.6641    1.2449    1.6111 O   0  0  0  0  0  0  0  0  0  0  0  0
   -2.5829    2.1108    1.7990 C   0  0  0  0  0  0  0  0  0  0  0  0
   -2.7522    0.4020   -0.4491 C   0  0  0  0  0  0  0  0  0  0  0  0
  1  2  1  0
  2  3  1  0
  3  4  1  0
  4  5  2  0
  5  6  1  0
  6  7  1  0
  7  8  1  0
  8  9  2  0
  9 10  1  0
 10 11  2  0
 11 12  1  0
 11 13  1  0
 13 14  2  0
 14 15  1  0
  6 16  2  0
 16 17  1  0
 17 18  2  0
 18 19  1  0
 19 20  1  0
 20 21  1  0
 21 22  2  0
 22 23  1  0
 23 24  1  0
 24 25  1  0
 23 26  2  0
 26 27  1  0
 27 28  1  0
 26 29  1  0
 29 30  1  0
 30 31  1  0
 29 32  2  0
 18  4  1  0
 32 21  1  0
 14  8  1  0
M  END
>  <zinc_id>  (497) 
ZINC000013472741

>  <ortholog_name>  (497) 
DRTS_PLAFK

>  <gene_name>  (497) 
DRTS_PLAFK

>  <affinity>  (497) 
7.15

>  <chembldocid>  (497) 
17636

>  <title>  (497) 
None

>  <reference.pubmed_id>  (497) 
14711307

>  <reference.doi>  (497) 
None

>  <reference.chembl_id>  (497) 
CHEMBL1148379

>  <reference.journal>  (497) 
J. Med. Chem.

>  <reference.year>  (497) 
2004

$$$$

     RDKit          3D

 33 35  0  0  0  0  0  0  0  0999 V2000
   -2.9256    3.6345    1.8382 C   0  0  0  0  0  0  0  0  0  0  0  0
   -1.8073    4.4204    2.4666 C   0  0  0  0  0  0  0  0  0  0  0  0
   -0.5644    4.2794    1.6885 C   0  0  0  0  0  0  0  0  0  0  0  0
    0.0014    3.0570    1.5099 O   0  0  0  0  0  0  0  0  0  0  0  0
   -0.3882    1.9000    0.9376 C   0  0  0  0  0  0  0  0  0  0  0  0
   -1.5912    1.6565    0.3214 C   0  0  0  0  0  0  0  0  0  0  0  0
   -1.9261    0.4417   -0.2464 C   0  0  0  0  0  0  0  0  0  0  0  0
   -3.2679    0.2634   -0.9009 C   0  0  0  0  0  0  0  0  0  0  0  0
   -4.1862   -0.2079    0.1689 C   0  0  0  0  0  0  0  0  0  0  0  0
   -5.1055    0.6623    0.7377 C   0  0  0  0  0  0  0  0  0  0  0  0
   -5.9258    0.2146    1.7044 N   0  0  0  0  0  0  0  0  0  0  0  0
   -5.9092   -1.0500    2.1628 C   0  0  0  0  0  0  0  0  0  0  0  0
   -6.8045   -1.4840    3.1966 N   0  0  0  0  0  0  0  0  0  0  0  0
   -5.0256   -1.8994    1.6211 N   0  0  0  0  0  0  0  0  0  0  0  0
   -4.1814   -1.4997    0.6489 C   0  0  0  0  0  0  0  0  0  0  0  0
   -3.2458   -2.4030    0.0766 N   0  0  0  0  0  0  0  0  0  0  0  0
   -1.0386   -0.6085   -0.2170 C   0  0  0  0  0  0  0  0  0  0  0  0
    0.1769   -0.3962    0.3939 C   0  0  0  0  0  0  0  0  0  0  0  0
    0.5017    0.8202    0.9581 C   0  0  0  0  0  0  0  0  0  0  0  0
    1.7310    1.0152    1.5694 O   0  0  0  0  0  0  0  0  0  0  0  0
    2.7428    0.0667    1.6872 C   0  0  0  0  0  0  0  0  0  0  0  0
    3.2243   -0.4076    0.3667 C   0  0  0  0  0  0  0  0  0  0  0  0
    4.2041   -1.3956    0.3006 C   0  0  0  0  0  0  0  0  0  0  0  0
    4.6666   -1.8457   -0.9186 C   0  0  0  0  0  0  0  0  0  0  0  0
    5.6491   -2.8363   -1.0122 O   0  0  0  0  0  0  0  0  0  0  0  0
    6.1565   -3.3642    0.1815 C   0  0  0  0  0  0  0  0  0  0  0  0
    4.1637   -1.3215   -2.1030 C   0  0  0  0  0  0  0  0  0  0  0  0
    4.6154   -1.7605   -3.3309 O   0  0  0  0  0  0  0  0  0  0  0  0
    5.7354   -1.0638   -3.8866 C   0  0  0  0  0  0  0  0  0  0  0  0
    3.1956   -0.3455   -2.0454 C   0  0  0  0  0  0  0  0  0  0  0  0
    2.6866    0.1844   -3.2300 O   0  0  0  0  0  0  0  0  0  0  0  0
    1.6925    1.1858   -3.1620 C   0  0  0  0  0  0  0  0  0  0  0  0
    2.7499    0.0872   -0.8123 C   0  0  0  0  0  0  0  0  0  0  0  0
  1  2  1  0
  2  3  1  0
  3  4  1  0
  4  5  1  0
  5  6  2  0
  6  7  1  0
  7  8  1  0
  8  9  1  0
  9 10  2  0
 10 11  1  0
 11 12  2  0
 12 13  1  0
 12 14  1  0
 14 15  2  0
 15 16  1  0
  7 17  2  0
 17 18  1  0
 18 19  2  0
 19 20  1  0
 20 21  1  0
 21 22  1  0
 22 23  2  0
 23 24  1  0
 24 25  1  0
 25 26  1  0
 24 27  2  0
 27 28  1  0
 28 29  1  0
 27 30  1  0
 30 31  1  0
 31 32  1  0
 30 33  2  0
 19  5  1  0
 33 22  1  0
 15  9  1  0
M  END
>  <zinc_id>  (498) 
ZINC000013472742

>  <ortholog_name>  (498) 
DRTS_PLAFK

>  <gene_name>  (498) 
DRTS_PLAFK

>  <affinity>  (498) 
9.40

>  <chembldocid>  (498) 
16871

>  <title>  (498) 
None

>  <reference.pubmed_id>  (498) 
11881993

>  <reference.doi>  (498) 
None

>  <reference.chembl_id>  (498) 
CHEMBL1135602

>  <reference.journal>  (498) 
J. Med. Chem.

>  <reference.year>  (498) 
2002

$$$$

     RDKit          3D

 33 35  0  0  0  0  0  0  0  0999 V2000
   -2.9256    3.6345    1.8382 C   0  0  0  0  0  0  0  0  0  0  0  0
   -1.8073    4.4204    2.4666 C   0  0  0  0  0  0  0  0  0  0  0  0
   -0.5644    4.2794    1.6885 C   0  0  0  0  0  0  0  0  0  0  0  0
    0.0014    3.0570    1.5099 O   0  0  0  0  0  0  0  0  0  0  0  0
   -0.3882    1.9000    0.9376 C   0  0  0  0  0  0  0  0  0  0  0  0
   -1.5912    1.6565    0.3214 C   0  0  0  0  0  0  0  0  0  0  0  0
   -1.9261    0.4417   -0.2464 C   0  0  0  0  0  0  0  0  0  0  0  0
   -3.2679    0.2634   -0.9009 C   0  0  0  0  0  0  0  0  0  0  0  0
   -4.1862   -0.2079    0.1689 C   0  0  0  0  0  0  0  0  0  0  0  0
   -5.1055    0.6623    0.7377 C   0  0  0  0  0  0  0  0  0  0  0  0
   -5.9258    0.2146    1.7044 N   0  0  0  0  0  0  0  0  0  0  0  0
   -5.9092   -1.0500    2.1628 C   0  0  0  0  0  0  0  0  0  0  0  0
   -6.8045   -1.4840    3.1966 N   0  0  0  0  0  0  0  0  0  0  0  0
   -5.0256   -1.8994    1.6211 N   0  0  0  0  0  0  0  0  0  0  0  0
   -4.1814   -1.4997    0.6489 C   0  0  0  0  0  0  0  0  0  0  0  0
   -3.2458   -2.4030    0.0766 N   0  0  0  0  0  0  0  0  0  0  0  0
   -1.0386   -0.6085   -0.2170 C   0  0  0  0  0  0  0  0  0  0  0  0
    0.1769   -0.3962    0.3939 C   0  0  0  0  0  0  0  0  0  0  0  0
    0.5017    0.8202    0.9581 C   0  0  0  0  0  0  0  0  0  0  0  0
    1.7310    1.0152    1.5694 O   0  0  0  0  0  0  0  0  0  0  0  0
    2.7428    0.0667    1.6872 C   0  0  0  0  0  0  0  0  0  0  0  0
    3.2243   -0.4076    0.3667 C   0  0  0  0  0  0  0  0  0  0  0  0
    4.2041   -1.3956    0.3006 C   0  0  0  0  0  0  0  0  0  0  0  0
    4.6666   -1.8457   -0.9186 C   0  0  0  0  0  0  0  0  0  0  0  0
    5.6491   -2.8363   -1.0122 O   0  0  0  0  0  0  0  0  0  0  0  0
    6.1565   -3.3642    0.1815 C   0  0  0  0  0  0  0  0  0  0  0  0
    4.1637   -1.3215   -2.1030 C   0  0  0  0  0  0  0  0  0  0  0  0
    4.6154   -1.7605   -3.3309 O   0  0  0  0  0  0  0  0  0  0  0  0
    5.7354   -1.0638   -3.8866 C   0  0  0  0  0  0  0  0  0  0  0  0
    3.1956   -0.3455   -2.0454 C   0  0  0  0  0  0  0  0  0  0  0  0
    2.6866    0.1844   -3.2300 O   0  0  0  0  0  0  0  0  0  0  0  0
    1.6925    1.1858   -3.1620 C   0  0  0  0  0  0  0  0  0  0  0  0
    2.7499    0.0872   -0.8123 C   0  0  0  0  0  0  0  0  0  0  0  0
  1  2  1  0
  2  3  1  0
  3  4  1  0
  4  5  1  0
  5  6  2  0
  6  7  1  0
  7  8  1  0
  8  9  1  0
  9 10  2  0
 10 11  1  0
 11 12  2  0
 12 13  1  0
 12 14  1  0
 14 15  2  0
 15 16  1  0
  7 17  2  0
 17 18  1  0
 18 19  2  0
 19 20  1  0
 20 21  1  0
 21 22  1  0
 22 23  2  0
 23 24  1  0
 24 25  1  0
 25 26  1  0
 24 27  2  0
 27 28  1  0
 28 29  1  0
 27 30  1  0
 30 31  1  0
 31 32  1  0
 30 33  2  0
 19  5  1  0
 33 22  1  0
 15  9  1  0
M  END
>  <zinc_id>  (499) 
ZINC000013472742

>  <ortholog_name>  (499) 
DRTS_PLAFK

>  <gene_name>  (499) 
DRTS_PLAFK

>  <affinity>  (499) 
9.40

>  <chembldocid>  (499) 
17636

>  <title>  (499) 
None

>  <reference.pubmed_id>  (499) 
14711307

>  <reference.doi>  (499) 
None

>  <reference.chembl_id>  (499) 
CHEMBL1148379

>  <reference.journal>  (499) 
J. Med. Chem.

>  <reference.year>  (499) 
2004

$$$$

     RDKit          3D

 33 35  0  0  0  0  0  0  0  0999 V2000
   -2.9256    3.6345    1.8382 C   0  0  0  0  0  0  0  0  0  0  0  0
   -1.8073    4.4204    2.4666 C   0  0  0  0  0  0  0  0  0  0  0  0
   -0.5644    4.2794    1.6885 C   0  0  0  0  0  0  0  0  0  0  0  0
    0.0014    3.0570    1.5099 O   0  0  0  0  0  0  0  0  0  0  0  0
   -0.3882    1.9000    0.9376 C   0  0  0  0  0  0  0  0  0  0  0  0
   -1.5912    1.6565    0.3214 C   0  0  0  0  0  0  0  0  0  0  0  0
   -1.9261    0.4417   -0.2464 C   0  0  0  0  0  0  0  0  0  0  0  0
   -3.2679    0.2634   -0.9009 C   0  0  0  0  0  0  0  0  0  0  0  0
   -4.1862   -0.2079    0.1689 C   0  0  0  0  0  0  0  0  0  0  0  0
   -5.1055    0.6623    0.7377 C   0  0  0  0  0  0  0  0  0  0  0  0
   -5.9258    0.2146    1.7044 N   0  0  0  0  0  0  0  0  0  0  0  0
   -5.9092   -1.0500    2.1628 C   0  0  0  0  0  0  0  0  0  0  0  0
   -6.8045   -1.4840    3.1966 N   0  0  0  0  0  0  0  0  0  0  0  0
   -5.0256   -1.8994    1.6211 N   0  0  0  0  0  0  0  0  0  0  0  0
   -4.1814   -1.4997    0.6489 C   0  0  0  0  0  0  0  0  0  0  0  0
   -3.2458   -2.4030    0.0766 N   0  0  0  0  0  0  0  0  0  0  0  0
   -1.0386   -0.6085   -0.2170 C   0  0  0  0  0  0  0  0  0  0  0  0
    0.1769   -0.3962    0.3939 C   0  0  0  0  0  0  0  0  0  0  0  0
    0.5017    0.8202    0.9581 C   0  0  0  0  0  0  0  0  0  0  0  0
    1.7310    1.0152    1.5694 O   0  0  0  0  0  0  0  0  0  0  0  0
    2.7428    0.0667    1.6872 C   0  0  0  0  0  0  0  0  0  0  0  0
    3.2243   -0.4076    0.3667 C   0  0  0  0  0  0  0  0  0  0  0  0
    4.2041   -1.3956    0.3006 C   0  0  0  0  0  0  0  0  0  0  0  0
    4.6666   -1.8457   -0.9186 C   0  0  0  0  0  0  0  0  0  0  0  0
    5.6491   -2.8363   -1.0122 O   0  0  0  0  0  0  0  0  0  0  0  0
    6.1565   -3.3642    0.1815 C   0  0  0  0  0  0  0  0  0  0  0  0
    4.1637   -1.3215   -2.1030 C   0  0  0  0  0  0  0  0  0  0  0  0
    4.6154   -1.7605   -3.3309 O   0  0  0  0  0  0  0  0  0  0  0  0
    5.7354   -1.0638   -3.8866 C   0  0  0  0  0  0  0  0  0  0  0  0
    3.1956   -0.3455   -2.0454 C   0  0  0  0  0  0  0  0  0  0  0  0
    2.6866    0.1844   -3.2300 O   0  0  0  0  0  0  0  0  0  0  0  0
    1.6925    1.1858   -3.1620 C   0  0  0  0  0  0  0  0  0  0  0  0
    2.7499    0.0872   -0.8123 C   0  0  0  0  0  0  0  0  0  0  0  0
  1  2  1  0
  2  3  1  0
  3  4  1  0
  4  5  1  0
  5  6  2  0
  6  7  1  0
  7  8  1  0
  8  9  1  0
  9 10  2  0
 10 11  1  0
 11 12  2  0
 12 13  1  0
 12 14  1  0
 14 15  2  0
 15 16  1  0
  7 17  2  0
 17 18  1  0
 18 19  2  0
 19 20  1  0
 20 21  1  0
 21 22  1  0
 22 23  2  0
 23 24  1  0
 24 25  1  0
 25 26  1  0
 24 27  2  0
 27 28  1  0
 28 29  1  0
 27 30  1  0
 30 31  1  0
 31 32  1  0
 30 33  2  0
 19  5  1  0
 33 22  1  0
 15  9  1  0
M  END
>  <zinc_id>  (500) 
ZINC000013472742

>  <ortholog_name>  (500) 
DRTS_PLAFK

>  <gene_name>  (500) 
DRTS_PLAFK

>  <affinity>  (500) 
8.80

>  <chembldocid>  (500) 
16871

>  <title>  (500) 
None

>  <reference.pubmed_id>  (500) 
11881993

>  <reference.doi>  (500) 
None

>  <reference.chembl_id>  (500) 
CHEMBL1135602

>  <reference.journal>  (500) 
J. Med. Chem.

>  <reference.year>  (500) 
2002

$$$$

     RDKit          3D

 33 35  0  0  0  0  0  0  0  0999 V2000
    0.9572    3.4903    1.6425 C   0  0  0  0  0  0  0  0  0  0  0  0
    1.1390    2.6890    2.9256 C   0  0  0  0  0  0  0  0  0  0  0  0
   -0.2069    2.0345    3.2696 C   0  0  0  0  0  0  0  0  0  0  0  0
   -0.5071    1.2014    2.1392 O   0  0  0  0  0  0  0  0  0  0  0  0
    0.3543    0.1679    1.7641 C   0  0  0  0  0  0  0  0  0  0  0  0
    1.5214   -0.1116    2.4420 C   0  0  0  0  0  0  0  0  0  0  0  0
    2.3246   -1.1404    2.0231 C   0  0  0  0  0  0  0  0  0  0  0  0
    3.5581   -1.4464    2.7337 C   0  0  0  0  0  0  0  0  0  0  0  0
    4.7300   -0.6992    2.2683 C   0  0  0  0  0  0  0  0  0  0  0  0
    5.2329    0.3719    3.0037 C   0  0  0  0  0  0  0  0  0  0  0  0
    6.3095    1.0300    2.5422 N   0  0  0  0  0  0  0  0  0  0  0  0
    6.9454    0.7193    1.3990 C   0  0  0  0  0  0  0  0  0  0  0  0
    8.0841    1.4773    0.9892 N   0  0  0  0  0  0  0  0  0  0  0  0
    6.4786   -0.3102    0.6725 N   0  0  0  0  0  0  0  0  0  0  0  0
    5.3891   -1.0109    1.0963 C   0  0  0  0  0  0  0  0  0  0  0  0
    4.8752   -2.1146    0.3322 N   0  0  0  0  0  0  0  0  0  0  0  0
    1.9464   -1.8747    0.9304 C   0  0  0  0  0  0  0  0  0  0  0  0
    0.7814   -1.5923    0.2576 C   0  0  0  0  0  0  0  0  0  0  0  0
   -0.0390   -0.5686    0.6567 C   0  0  0  0  0  0  0  0  0  0  0  0
   -1.2317   -0.2677   -0.0193 O   0  0  0  0  0  0  0  0  0  0  0  0
   -1.5644   -1.0674   -1.1376 C   0  0  0  0  0  0  0  0  0  0  0  0
   -2.8487   -0.5649   -1.6861 C   0  0  0  0  0  0  0  0  0  0  0  0
   -3.4801   -1.2395   -2.6964 C   0  0  0  0  0  0  0  0  0  0  0  0
   -4.6597   -0.8531   -3.2649 C   0  0  0  0  0  0  0  0  0  0  0  0
   -5.2252   -1.5913   -4.2764 O   0  0  0  0  0  0  0  0  0  0  0  0
   -4.6428   -2.7661   -4.7822 C   0  0  0  0  0  0  0  0  0  0  0  0
   -5.2422    0.3082   -2.7684 C   0  0  0  0  0  0  0  0  0  0  0  0
   -6.4544    0.6683   -3.3825 O   0  0  0  0  0  0  0  0  0  0  0  0
   -6.4279    1.5184   -4.5240 C   0  0  0  0  0  0  0  0  0  0  0  0
   -4.6606    1.0195   -1.7658 C   0  0  0  0  0  0  0  0  0  0  0  0
   -5.2997    2.1776   -1.3140 O   0  0  0  0  0  0  0  0  0  0  0  0
   -4.6745    2.9153   -0.2580 C   0  0  0  0  0  0  0  0  0  0  0  0
   -3.4623    0.5967   -1.2123 C   0  0  0  0  0  0  0  0  0  0  0  0
  1  2  1  0
  2  3  1  0
  3  4  1  0
  4  5  1  0
  5  6  2  0
  6  7  1  0
  7  8  1  0
  8  9  1  0
  9 10  2  0
 10 11  1  0
 11 12  2  0
 12 13  1  0
 12 14  1  0
 14 15  2  0
 15 16  1  0
  7 17  2  0
 17 18  1  0
 18 19  2  0
 19 20  1  0
 20 21  1  0
 21 22  1  0
 22 23  2  0
 23 24  1  0
 24 25  1  0
 25 26  1  0
 24 27  2  0
 27 28  1  0
 28 29  1  0
 27 30  1  0
 30 31  1  0
 31 32  1  0
 30 33  2  0
 19  5  1  0
 33 22  1  0
 15  9  1  0
M  END
>  <zinc_id>  (501) 
ZINC000013472742

>  <ortholog_name>  (501) 
DRTS_PLAFK

>  <gene_name>  (501) 
DRTS_PLAFK

>  <affinity>  (501) 
6.98

>  <chembldocid>  (501) 
17636

>  <title>  (501) 
None

>  <reference.pubmed_id>  (501) 
14711307

>  <reference.doi>  (501) 
None

>  <reference.chembl_id>  (501) 
CHEMBL1148379

>  <reference.journal>  (501) 
J. Med. Chem.

>  <reference.year>  (501) 
2004

$$$$

     RDKit          3D

 33 35  0  0  0  0  0  0  0  0999 V2000
    0.9572    3.4903    1.6425 C   0  0  0  0  0  0  0  0  0  0  0  0
    1.1390    2.6890    2.9256 C   0  0  0  0  0  0  0  0  0  0  0  0
   -0.2069    2.0345    3.2696 C   0  0  0  0  0  0  0  0  0  0  0  0
   -0.5071    1.2014    2.1392 O   0  0  0  0  0  0  0  0  0  0  0  0
    0.3543    0.1679    1.7641 C   0  0  0  0  0  0  0  0  0  0  0  0
    1.5214   -0.1116    2.4420 C   0  0  0  0  0  0  0  0  0  0  0  0
    2.3246   -1.1404    2.0231 C   0  0  0  0  0  0  0  0  0  0  0  0
    3.5581   -1.4464    2.7337 C   0  0  0  0  0  0  0  0  0  0  0  0
    4.7300   -0.6992    2.2683 C   0  0  0  0  0  0  0  0  0  0  0  0
    5.2329    0.3719    3.0037 C   0  0  0  0  0  0  0  0  0  0  0  0
    6.3095    1.0300    2.5422 N   0  0  0  0  0  0  0  0  0  0  0  0
    6.9454    0.7193    1.3990 C   0  0  0  0  0  0  0  0  0  0  0  0
    8.0841    1.4773    0.9892 N   0  0  0  0  0  0  0  0  0  0  0  0
    6.4786   -0.3102    0.6725 N   0  0  0  0  0  0  0  0  0  0  0  0
    5.3891   -1.0109    1.0963 C   0  0  0  0  0  0  0  0  0  0  0  0
    4.8752   -2.1146    0.3322 N   0  0  0  0  0  0  0  0  0  0  0  0
    1.9464   -1.8747    0.9304 C   0  0  0  0  0  0  0  0  0  0  0  0
    0.7814   -1.5923    0.2576 C   0  0  0  0  0  0  0  0  0  0  0  0
   -0.0390   -0.5686    0.6567 C   0  0  0  0  0  0  0  0  0  0  0  0
   -1.2317   -0.2677   -0.0193 O   0  0  0  0  0  0  0  0  0  0  0  0
   -1.5644   -1.0674   -1.1376 C   0  0  0  0  0  0  0  0  0  0  0  0
   -2.8487   -0.5649   -1.6861 C   0  0  0  0  0  0  0  0  0  0  0  0
   -3.4801   -1.2395   -2.6964 C   0  0  0  0  0  0  0  0  0  0  0  0
   -4.6597   -0.8531   -3.2649 C   0  0  0  0  0  0  0  0  0  0  0  0
   -5.2252   -1.5913   -4.2764 O   0  0  0  0  0  0  0  0  0  0  0  0
   -4.6428   -2.7661   -4.7822 C   0  0  0  0  0  0  0  0  0  0  0  0
   -5.2422    0.3082   -2.7684 C   0  0  0  0  0  0  0  0  0  0  0  0
   -6.4544    0.6683   -3.3825 O   0  0  0  0  0  0  0  0  0  0  0  0
   -6.4279    1.5184   -4.5240 C   0  0  0  0  0  0  0  0  0  0  0  0
   -4.6606    1.0195   -1.7658 C   0  0  0  0  0  0  0  0  0  0  0  0
   -5.2997    2.1776   -1.3140 O   0  0  0  0  0  0  0  0  0  0  0  0
   -4.6745    2.9153   -0.2580 C   0  0  0  0  0  0  0  0  0  0  0  0
   -3.4623    0.5967   -1.2123 C   0  0  0  0  0  0  0  0  0  0  0  0
  1  2  1  0
  2  3  1  0
  3  4  1  0
  4  5  1  0
  5  6  2  0
  6  7  1  0
  7  8  1  0
  8  9  1  0
  9 10  2  0
 10 11  1  0
 11 12  2  0
 12 13  1  0
 12 14  1  0
 14 15  2  0
 15 16  1  0
  7 17  2  0
 17 18  1  0
 18 19  2  0
 19 20  1  0
 20 21  1  0
 21 22  1  0
 22 23  2  0
 23 24  1  0
 24 25  1  0
 25 26  1  0
 24 27  2  0
 27 28  1  0
 28 29  1  0
 27 30  1  0
 30 31  1  0
 31 32  1  0
 30 33  2  0
 19  5  1  0
 33 22  1  0
 15  9  1  0
M  END
>  <zinc_id>  (502) 
ZINC000013472742

>  <ortholog_name>  (502) 
DRTS_PLAFK

>  <gene_name>  (502) 
DRTS_PLAFK

>  <affinity>  (502) 
6.82

>  <chembldocid>  (502) 
17636

>  <title>  (502) 
None

>  <reference.pubmed_id>  (502) 
14711307

>  <reference.doi>  (502) 
None

>  <reference.chembl_id>  (502) 
CHEMBL1148379

>  <reference.journal>  (502) 
J. Med. Chem.

>  <reference.year>  (502) 
2004

$$$$

     RDKit          3D

 33 35  0  0  0  0  0  0  0  0999 V2000
    0.9572    3.4903    1.6425 C   0  0  0  0  0  0  0  0  0  0  0  0
    1.1390    2.6890    2.9256 C   0  0  0  0  0  0  0  0  0  0  0  0
   -0.2069    2.0345    3.2696 C   0  0  0  0  0  0  0  0  0  0  0  0
   -0.5071    1.2014    2.1392 O   0  0  0  0  0  0  0  0  0  0  0  0
    0.3543    0.1679    1.7641 C   0  0  0  0  0  0  0  0  0  0  0  0
    1.5214   -0.1116    2.4420 C   0  0  0  0  0  0  0  0  0  0  0  0
    2.3246   -1.1404    2.0231 C   0  0  0  0  0  0  0  0  0  0  0  0
    3.5581   -1.4464    2.7337 C   0  0  0  0  0  0  0  0  0  0  0  0
    4.7300   -0.6992    2.2683 C   0  0  0  0  0  0  0  0  0  0  0  0
    5.2329    0.3719    3.0037 C   0  0  0  0  0  0  0  0  0  0  0  0
    6.3095    1.0300    2.5422 N   0  0  0  0  0  0  0  0  0  0  0  0
    6.9454    0.7193    1.3990 C   0  0  0  0  0  0  0  0  0  0  0  0
    8.0841    1.4773    0.9892 N   0  0  0  0  0  0  0  0  0  0  0  0
    6.4786   -0.3102    0.6725 N   0  0  0  0  0  0  0  0  0  0  0  0
    5.3891   -1.0109    1.0963 C   0  0  0  0  0  0  0  0  0  0  0  0
    4.8752   -2.1146    0.3322 N   0  0  0  0  0  0  0  0  0  0  0  0
    1.9464   -1.8747    0.9304 C   0  0  0  0  0  0  0  0  0  0  0  0
    0.7814   -1.5923    0.2576 C   0  0  0  0  0  0  0  0  0  0  0  0
   -0.0390   -0.5686    0.6567 C   0  0  0  0  0  0  0  0  0  0  0  0
   -1.2317   -0.2677   -0.0193 O   0  0  0  0  0  0  0  0  0  0  0  0
   -1.5644   -1.0674   -1.1376 C   0  0  0  0  0  0  0  0  0  0  0  0
   -2.8487   -0.5649   -1.6861 C   0  0  0  0  0  0  0  0  0  0  0  0
   -3.4801   -1.2395   -2.6964 C   0  0  0  0  0  0  0  0  0  0  0  0
   -4.6597   -0.8531   -3.2649 C   0  0  0  0  0  0  0  0  0  0  0  0
   -5.2252   -1.5913   -4.2764 O   0  0  0  0  0  0  0  0  0  0  0  0
   -4.6428   -2.7661   -4.7822 C   0  0  0  0  0  0  0  0  0  0  0  0
   -5.2422    0.3082   -2.7684 C   0  0  0  0  0  0  0  0  0  0  0  0
   -6.4544    0.6683   -3.3825 O   0  0  0  0  0  0  0  0  0  0  0  0
   -6.4279    1.5184   -4.5240 C   0  0  0  0  0  0  0  0  0  0  0  0
   -4.6606    1.0195   -1.7658 C   0  0  0  0  0  0  0  0  0  0  0  0
   -5.2997    2.1776   -1.3140 O   0  0  0  0  0  0  0  0  0  0  0  0
   -4.6745    2.9153   -0.2580 C   0  0  0  0  0  0  0  0  0  0  0  0
   -3.4623    0.5967   -1.2123 C   0  0  0  0  0  0  0  0  0  0  0  0
  1  2  1  0
  2  3  1  0
  3  4  1  0
  4  5  1  0
  5  6  2  0
  6  7  1  0
  7  8  1  0
  8  9  1  0
  9 10  2  0
 10 11  1  0
 11 12  2  0
 12 13  1  0
 12 14  1  0
 14 15  2  0
 15 16  1  0
  7 17  2  0
 17 18  1  0
 18 19  2  0
 19 20  1  0
 20 21  1  0
 21 22  1  0
 22 23  2  0
 23 24  1  0
 24 25  1  0
 25 26  1  0
 24 27  2  0
 27 28  1  0
 28 29  1  0
 27 30  1  0
 30 31  1  0
 31 32  1  0
 30 33  2  0
 19  5  1  0
 33 22  1  0
 15  9  1  0
M  END
>  <zinc_id>  (503) 
ZINC000013472742

>  <ortholog_name>  (503) 
DRTS_PLAFK

>  <gene_name>  (503) 
DRTS_PLAFK

>  <affinity>  (503) 
7.70

>  <chembldocid>  (503) 
17636

>  <title>  (503) 
None

>  <reference.pubmed_id>  (503) 
14711307

>  <reference.doi>  (503) 
None

>  <reference.chembl_id>  (503) 
CHEMBL1148379

>  <reference.journal>  (503) 
J. Med. Chem.

>  <reference.year>  (503) 
2004

$$$$

     RDKit          3D

 33 35  0  0  0  0  0  0  0  0999 V2000
    0.9572    3.4903    1.6425 C   0  0  0  0  0  0  0  0  0  0  0  0
    1.1390    2.6890    2.9256 C   0  0  0  0  0  0  0  0  0  0  0  0
   -0.2069    2.0345    3.2696 C   0  0  0  0  0  0  0  0  0  0  0  0
   -0.5071    1.2014    2.1392 O   0  0  0  0  0  0  0  0  0  0  0  0
    0.3543    0.1679    1.7641 C   0  0  0  0  0  0  0  0  0  0  0  0
    1.5214   -0.1116    2.4420 C   0  0  0  0  0  0  0  0  0  0  0  0
    2.3246   -1.1404    2.0231 C   0  0  0  0  0  0  0  0  0  0  0  0
    3.5581   -1.4464    2.7337 C   0  0  0  0  0  0  0  0  0  0  0  0
    4.7300   -0.6992    2.2683 C   0  0  0  0  0  0  0  0  0  0  0  0
    5.2329    0.3719    3.0037 C   0  0  0  0  0  0  0  0  0  0  0  0
    6.3095    1.0300    2.5422 N   0  0  0  0  0  0  0  0  0  0  0  0
    6.9454    0.7193    1.3990 C   0  0  0  0  0  0  0  0  0  0  0  0
    8.0841    1.4773    0.9892 N   0  0  0  0  0  0  0  0  0  0  0  0
    6.4786   -0.3102    0.6725 N   0  0  0  0  0  0  0  0  0  0  0  0
    5.3891   -1.0109    1.0963 C   0  0  0  0  0  0  0  0  0  0  0  0
    4.8752   -2.1146    0.3322 N   0  0  0  0  0  0  0  0  0  0  0  0
    1.9464   -1.8747    0.9304 C   0  0  0  0  0  0  0  0  0  0  0  0
    0.7814   -1.5923    0.2576 C   0  0  0  0  0  0  0  0  0  0  0  0
   -0.0390   -0.5686    0.6567 C   0  0  0  0  0  0  0  0  0  0  0  0
   -1.2317   -0.2677   -0.0193 O   0  0  0  0  0  0  0  0  0  0  0  0
   -1.5644   -1.0674   -1.1376 C   0  0  0  0  0  0  0  0  0  0  0  0
   -2.8487   -0.5649   -1.6861 C   0  0  0  0  0  0  0  0  0  0  0  0
   -3.4801   -1.2395   -2.6964 C   0  0  0  0  0  0  0  0  0  0  0  0
   -4.6597   -0.8531   -3.2649 C   0  0  0  0  0  0  0  0  0  0  0  0
   -5.2252   -1.5913   -4.2764 O   0  0  0  0  0  0  0  0  0  0  0  0
   -4.6428   -2.7661   -4.7822 C   0  0  0  0  0  0  0  0  0  0  0  0
   -5.2422    0.3082   -2.7684 C   0  0  0  0  0  0  0  0  0  0  0  0
   -6.4544    0.6683   -3.3825 O   0  0  0  0  0  0  0  0  0  0  0  0
   -6.4279    1.5184   -4.5240 C   0  0  0  0  0  0  0  0  0  0  0  0
   -4.6606    1.0195   -1.7658 C   0  0  0  0  0  0  0  0  0  0  0  0
   -5.2997    2.1776   -1.3140 O   0  0  0  0  0  0  0  0  0  0  0  0
   -4.6745    2.9153   -0.2580 C   0  0  0  0  0  0  0  0  0  0  0  0
   -3.4623    0.5967   -1.2123 C   0  0  0  0  0  0  0  0  0  0  0  0
  1  2  1  0
  2  3  1  0
  3  4  1  0
  4  5  1  0
  5  6  2  0
  6  7  1  0
  7  8  1  0
  8  9  1  0
  9 10  2  0
 10 11  1  0
 11 12  2  0
 12 13  1  0
 12 14  1  0
 14 15  2  0
 15 16  1  0
  7 17  2  0
 17 18  1  0
 18 19  2  0
 19 20  1  0
 20 21  1  0
 21 22  1  0
 22 23  2  0
 23 24  1  0
 24 25  1  0
 25 26  1  0
 24 27  2  0
 27 28  1  0
 28 29  1  0
 27 30  1  0
 30 31  1  0
 31 32  1  0
 30 33  2  0
 19  5  1  0
 33 22  1  0
 15  9  1  0
M  END
>  <zinc_id>  (504) 
ZINC000013472742

>  <ortholog_name>  (504) 
DRTS_PLAFK

>  <gene_name>  (504) 
DRTS_PLAFK

>  <affinity>  (504) 
6.59

>  <chembldocid>  (504) 
17636

>  <title>  (504) 
None

>  <reference.pubmed_id>  (504) 
14711307

>  <reference.doi>  (504) 
None

>  <reference.chembl_id>  (504) 
CHEMBL1148379

>  <reference.journal>  (504) 
J. Med. Chem.

>  <reference.year>  (504) 
2004

$$$$

     RDKit          3D

 33 35  0  0  0  0  0  0  0  0999 V2000
    0.9572    3.4903    1.6425 C   0  0  0  0  0  0  0  0  0  0  0  0
    1.1390    2.6890    2.9256 C   0  0  0  0  0  0  0  0  0  0  0  0
   -0.2069    2.0345    3.2696 C   0  0  0  0  0  0  0  0  0  0  0  0
   -0.5071    1.2014    2.1392 O   0  0  0  0  0  0  0  0  0  0  0  0
    0.3543    0.1679    1.7641 C   0  0  0  0  0  0  0  0  0  0  0  0
    1.5214   -0.1116    2.4420 C   0  0  0  0  0  0  0  0  0  0  0  0
    2.3246   -1.1404    2.0231 C   0  0  0  0  0  0  0  0  0  0  0  0
    3.5581   -1.4464    2.7337 C   0  0  0  0  0  0  0  0  0  0  0  0
    4.7300   -0.6992    2.2683 C   0  0  0  0  0  0  0  0  0  0  0  0
    5.2329    0.3719    3.0037 C   0  0  0  0  0  0  0  0  0  0  0  0
    6.3095    1.0300    2.5422 N   0  0  0  0  0  0  0  0  0  0  0  0
    6.9454    0.7193    1.3990 C   0  0  0  0  0  0  0  0  0  0  0  0
    8.0841    1.4773    0.9892 N   0  0  0  0  0  0  0  0  0  0  0  0
    6.4786   -0.3102    0.6725 N   0  0  0  0  0  0  0  0  0  0  0  0
    5.3891   -1.0109    1.0963 C   0  0  0  0  0  0  0  0  0  0  0  0
    4.8752   -2.1146    0.3322 N   0  0  0  0  0  0  0  0  0  0  0  0
    1.9464   -1.8747    0.9304 C   0  0  0  0  0  0  0  0  0  0  0  0
    0.7814   -1.5923    0.2576 C   0  0  0  0  0  0  0  0  0  0  0  0
   -0.0390   -0.5686    0.6567 C   0  0  0  0  0  0  0  0  0  0  0  0
   -1.2317   -0.2677   -0.0193 O   0  0  0  0  0  0  0  0  0  0  0  0
   -1.5644   -1.0674   -1.1376 C   0  0  0  0  0  0  0  0  0  0  0  0
   -2.8487   -0.5649   -1.6861 C   0  0  0  0  0  0  0  0  0  0  0  0
   -3.4801   -1.2395   -2.6964 C   0  0  0  0  0  0  0  0  0  0  0  0
   -4.6597   -0.8531   -3.2649 C   0  0  0  0  0  0  0  0  0  0  0  0
   -5.2252   -1.5913   -4.2764 O   0  0  0  0  0  0  0  0  0  0  0  0
   -4.6428   -2.7661   -4.7822 C   0  0  0  0  0  0  0  0  0  0  0  0
   -5.2422    0.3082   -2.7684 C   0  0  0  0  0  0  0  0  0  0  0  0
   -6.4544    0.6683   -3.3825 O   0  0  0  0  0  0  0  0  0  0  0  0
   -6.4279    1.5184   -4.5240 C   0  0  0  0  0  0  0  0  0  0  0  0
   -4.6606    1.0195   -1.7658 C   0  0  0  0  0  0  0  0  0  0  0  0
   -5.2997    2.1776   -1.3140 O   0  0  0  0  0  0  0  0  0  0  0  0
   -4.6745    2.9153   -0.2580 C   0  0  0  0  0  0  0  0  0  0  0  0
   -3.4623    0.5967   -1.2123 C   0  0  0  0  0  0  0  0  0  0  0  0
  1  2  1  0
  2  3  1  0
  3  4  1  0
  4  5  1  0
  5  6  2  0
  6  7  1  0
  7  8  1  0
  8  9  1  0
  9 10  2  0
 10 11  1  0
 11 12  2  0
 12 13  1  0
 12 14  1  0
 14 15  2  0
 15 16  1  0
  7 17  2  0
 17 18  1  0
 18 19  2  0
 19 20  1  0
 20 21  1  0
 21 22  1  0
 22 23  2  0
 23 24  1  0
 24 25  1  0
 25 26  1  0
 24 27  2  0
 27 28  1  0
 28 29  1  0
 27 30  1  0
 30 31  1  0
 31 32  1  0
 30 33  2  0
 19  5  1  0
 33 22  1  0
 15  9  1  0
M  END
>  <zinc_id>  (505) 
ZINC000013472742

>  <ortholog_name>  (505) 
DRTS_PLAFK

>  <gene_name>  (505) 
DRTS_PLAFK

>  <affinity>  (505) 
8.46

>  <chembldocid>  (505) 
16871

>  <title>  (505) 
None

>  <reference.pubmed_id>  (505) 
11881993

>  <reference.doi>  (505) 
None

>  <reference.chembl_id>  (505) 
CHEMBL1135602

>  <reference.journal>  (505) 
J. Med. Chem.

>  <reference.year>  (505) 
2002

$$$$

     RDKit          3D

 33 35  0  0  0  0  0  0  0  0999 V2000
    0.9572    3.4903    1.6425 C   0  0  0  0  0  0  0  0  0  0  0  0
    1.1390    2.6890    2.9256 C   0  0  0  0  0  0  0  0  0  0  0  0
   -0.2069    2.0345    3.2696 C   0  0  0  0  0  0  0  0  0  0  0  0
   -0.5071    1.2014    2.1392 O   0  0  0  0  0  0  0  0  0  0  0  0
    0.3543    0.1679    1.7641 C   0  0  0  0  0  0  0  0  0  0  0  0
    1.5214   -0.1116    2.4420 C   0  0  0  0  0  0  0  0  0  0  0  0
    2.3246   -1.1404    2.0231 C   0  0  0  0  0  0  0  0  0  0  0  0
    3.5581   -1.4464    2.7337 C   0  0  0  0  0  0  0  0  0  0  0  0
    4.7300   -0.6992    2.2683 C   0  0  0  0  0  0  0  0  0  0  0  0
    5.2329    0.3719    3.0037 C   0  0  0  0  0  0  0  0  0  0  0  0
    6.3095    1.0300    2.5422 N   0  0  0  0  0  0  0  0  0  0  0  0
    6.9454    0.7193    1.3990 C   0  0  0  0  0  0  0  0  0  0  0  0
    8.0841    1.4773    0.9892 N   0  0  0  0  0  0  0  0  0  0  0  0
    6.4786   -0.3102    0.6725 N   0  0  0  0  0  0  0  0  0  0  0  0
    5.3891   -1.0109    1.0963 C   0  0  0  0  0  0  0  0  0  0  0  0
    4.8752   -2.1146    0.3322 N   0  0  0  0  0  0  0  0  0  0  0  0
    1.9464   -1.8747    0.9304 C   0  0  0  0  0  0  0  0  0  0  0  0
    0.7814   -1.5923    0.2576 C   0  0  0  0  0  0  0  0  0  0  0  0
   -0.0390   -0.5686    0.6567 C   0  0  0  0  0  0  0  0  0  0  0  0
   -1.2317   -0.2677   -0.0193 O   0  0  0  0  0  0  0  0  0  0  0  0
   -1.5644   -1.0674   -1.1376 C   0  0  0  0  0  0  0  0  0  0  0  0
   -2.8487   -0.5649   -1.6861 C   0  0  0  0  0  0  0  0  0  0  0  0
   -3.4801   -1.2395   -2.6964 C   0  0  0  0  0  0  0  0  0  0  0  0
   -4.6597   -0.8531   -3.2649 C   0  0  0  0  0  0  0  0  0  0  0  0
   -5.2252   -1.5913   -4.2764 O   0  0  0  0  0  0  0  0  0  0  0  0
   -4.6428   -2.7661   -4.7822 C   0  0  0  0  0  0  0  0  0  0  0  0
   -5.2422    0.3082   -2.7684 C   0  0  0  0  0  0  0  0  0  0  0  0
   -6.4544    0.6683   -3.3825 O   0  0  0  0  0  0  0  0  0  0  0  0
   -6.4279    1.5184   -4.5240 C   0  0  0  0  0  0  0  0  0  0  0  0
   -4.6606    1.0195   -1.7658 C   0  0  0  0  0  0  0  0  0  0  0  0
   -5.2997    2.1776   -1.3140 O   0  0  0  0  0  0  0  0  0  0  0  0
   -4.6745    2.9153   -0.2580 C   0  0  0  0  0  0  0  0  0  0  0  0
   -3.4623    0.5967   -1.2123 C   0  0  0  0  0  0  0  0  0  0  0  0
  1  2  1  0
  2  3  1  0
  3  4  1  0
  4  5  1  0
  5  6  2  0
  6  7  1  0
  7  8  1  0
  8  9  1  0
  9 10  2  0
 10 11  1  0
 11 12  2  0
 12 13  1  0
 12 14  1  0
 14 15  2  0
 15 16  1  0
  7 17  2  0
 17 18  1  0
 18 19  2  0
 19 20  1  0
 20 21  1  0
 21 22  1  0
 22 23  2  0
 23 24  1  0
 24 25  1  0
 25 26  1  0
 24 27  2  0
 27 28  1  0
 28 29  1  0
 27 30  1  0
 30 31  1  0
 31 32  1  0
 30 33  2  0
 19  5  1  0
 33 22  1  0
 15  9  1  0
M  END
>  <zinc_id>  (506) 
ZINC000013472742

>  <ortholog_name>  (506) 
DRTS_PLAFK

>  <gene_name>  (506) 
DRTS_PLAFK

>  <affinity>  (506) 
7.52

>  <chembldocid>  (506) 
17636

>  <title>  (506) 
None

>  <reference.pubmed_id>  (506) 
14711307

>  <reference.doi>  (506) 
None

>  <reference.chembl_id>  (506) 
CHEMBL1148379

>  <reference.journal>  (506) 
J. Med. Chem.

>  <reference.year>  (506) 
2004

$$$$

     RDKit          3D

 33 35  0  0  0  0  0  0  0  0999 V2000
    0.9572    3.4903    1.6425 C   0  0  0  0  0  0  0  0  0  0  0  0
    1.1390    2.6890    2.9256 C   0  0  0  0  0  0  0  0  0  0  0  0
   -0.2069    2.0345    3.2696 C   0  0  0  0  0  0  0  0  0  0  0  0
   -0.5071    1.2014    2.1392 O   0  0  0  0  0  0  0  0  0  0  0  0
    0.3543    0.1679    1.7641 C   0  0  0  0  0  0  0  0  0  0  0  0
    1.5214   -0.1116    2.4420 C   0  0  0  0  0  0  0  0  0  0  0  0
    2.3246   -1.1404    2.0231 C   0  0  0  0  0  0  0  0  0  0  0  0
    3.5581   -1.4464    2.7337 C   0  0  0  0  0  0  0  0  0  0  0  0
    4.7300   -0.6992    2.2683 C   0  0  0  0  0  0  0  0  0  0  0  0
    5.2329    0.3719    3.0037 C   0  0  0  0  0  0  0  0  0  0  0  0
    6.3095    1.0300    2.5422 N   0  0  0  0  0  0  0  0  0  0  0  0
    6.9454    0.7193    1.3990 C   0  0  0  0  0  0  0  0  0  0  0  0
    8.0841    1.4773    0.9892 N   0  0  0  0  0  0  0  0  0  0  0  0
    6.4786   -0.3102    0.6725 N   0  0  0  0  0  0  0  0  0  0  0  0
    5.3891   -1.0109    1.0963 C   0  0  0  0  0  0  0  0  0  0  0  0
    4.8752   -2.1146    0.3322 N   0  0  0  0  0  0  0  0  0  0  0  0
    1.9464   -1.8747    0.9304 C   0  0  0  0  0  0  0  0  0  0  0  0
    0.7814   -1.5923    0.2576 C   0  0  0  0  0  0  0  0  0  0  0  0
   -0.0390   -0.5686    0.6567 C   0  0  0  0  0  0  0  0  0  0  0  0
   -1.2317   -0.2677   -0.0193 O   0  0  0  0  0  0  0  0  0  0  0  0
   -1.5644   -1.0674   -1.1376 C   0  0  0  0  0  0  0  0  0  0  0  0
   -2.8487   -0.5649   -1.6861 C   0  0  0  0  0  0  0  0  0  0  0  0
   -3.4801   -1.2395   -2.6964 C   0  0  0  0  0  0  0  0  0  0  0  0
   -4.6597   -0.8531   -3.2649 C   0  0  0  0  0  0  0  0  0  0  0  0
   -5.2252   -1.5913   -4.2764 O   0  0  0  0  0  0  0  0  0  0  0  0
   -4.6428   -2.7661   -4.7822 C   0  0  0  0  0  0  0  0  0  0  0  0
   -5.2422    0.3082   -2.7684 C   0  0  0  0  0  0  0  0  0  0  0  0
   -6.4544    0.6683   -3.3825 O   0  0  0  0  0  0  0  0  0  0  0  0
   -6.4279    1.5184   -4.5240 C   0  0  0  0  0  0  0  0  0  0  0  0
   -4.6606    1.0195   -1.7658 C   0  0  0  0  0  0  0  0  0  0  0  0
   -5.2997    2.1776   -1.3140 O   0  0  0  0  0  0  0  0  0  0  0  0
   -4.6745    2.9153   -0.2580 C   0  0  0  0  0  0  0  0  0  0  0  0
   -3.4623    0.5967   -1.2123 C   0  0  0  0  0  0  0  0  0  0  0  0
  1  2  1  0
  2  3  1  0
  3  4  1  0
  4  5  1  0
  5  6  2  0
  6  7  1  0
  7  8  1  0
  8  9  1  0
  9 10  2  0
 10 11  1  0
 11 12  2  0
 12 13  1  0
 12 14  1  0
 14 15  2  0
 15 16  1  0
  7 17  2  0
 17 18  1  0
 18 19  2  0
 19 20  1  0
 20 21  1  0
 21 22  1  0
 22 23  2  0
 23 24  1  0
 24 25  1  0
 25 26  1  0
 24 27  2  0
 27 28  1  0
 28 29  1  0
 27 30  1  0
 30 31  1  0
 31 32  1  0
 30 33  2  0
 19  5  1  0
 33 22  1  0
 15  9  1  0
M  END
>  <zinc_id>  (507) 
ZINC000013472742

>  <ortholog_name>  (507) 
DRTS_PLAFK

>  <gene_name>  (507) 
DRTS_PLAFK

>  <affinity>  (507) 
5.37

>  <chembldocid>  (507) 
17636

>  <title>  (507) 
None

>  <reference.pubmed_id>  (507) 
14711307

>  <reference.doi>  (507) 
None

>  <reference.chembl_id>  (507) 
CHEMBL1148379

>  <reference.journal>  (507) 
J. Med. Chem.

>  <reference.year>  (507) 
2004

$$$$

     RDKit          3D

 33 35  0  0  0  0  0  0  0  0999 V2000
    0.9572    3.4903    1.6425 C   0  0  0  0  0  0  0  0  0  0  0  0
    1.1390    2.6890    2.9256 C   0  0  0  0  0  0  0  0  0  0  0  0
   -0.2069    2.0345    3.2696 C   0  0  0  0  0  0  0  0  0  0  0  0
   -0.5071    1.2014    2.1392 O   0  0  0  0  0  0  0  0  0  0  0  0
    0.3543    0.1679    1.7641 C   0  0  0  0  0  0  0  0  0  0  0  0
    1.5214   -0.1116    2.4420 C   0  0  0  0  0  0  0  0  0  0  0  0
    2.3246   -1.1404    2.0231 C   0  0  0  0  0  0  0  0  0  0  0  0
    3.5581   -1.4464    2.7337 C   0  0  0  0  0  0  0  0  0  0  0  0
    4.7300   -0.6992    2.2683 C   0  0  0  0  0  0  0  0  0  0  0  0
    5.2329    0.3719    3.0037 C   0  0  0  0  0  0  0  0  0  0  0  0
    6.3095    1.0300    2.5422 N   0  0  0  0  0  0  0  0  0  0  0  0
    6.9454    0.7193    1.3990 C   0  0  0  0  0  0  0  0  0  0  0  0
    8.0841    1.4773    0.9892 N   0  0  0  0  0  0  0  0  0  0  0  0
    6.4786   -0.3102    0.6725 N   0  0  0  0  0  0  0  0  0  0  0  0
    5.3891   -1.0109    1.0963 C   0  0  0  0  0  0  0  0  0  0  0  0
    4.8752   -2.1146    0.3322 N   0  0  0  0  0  0  0  0  0  0  0  0
    1.9464   -1.8747    0.9304 C   0  0  0  0  0  0  0  0  0  0  0  0
    0.7814   -1.5923    0.2576 C   0  0  0  0  0  0  0  0  0  0  0  0
   -0.0390   -0.5686    0.6567 C   0  0  0  0  0  0  0  0  0  0  0  0
   -1.2317   -0.2677   -0.0193 O   0  0  0  0  0  0  0  0  0  0  0  0
   -1.5644   -1.0674   -1.1376 C   0  0  0  0  0  0  0  0  0  0  0  0
   -2.8487   -0.5649   -1.6861 C   0  0  0  0  0  0  0  0  0  0  0  0
   -3.4801   -1.2395   -2.6964 C   0  0  0  0  0  0  0  0  0  0  0  0
   -4.6597   -0.8531   -3.2649 C   0  0  0  0  0  0  0  0  0  0  0  0
   -5.2252   -1.5913   -4.2764 O   0  0  0  0  0  0  0  0  0  0  0  0
   -4.6428   -2.7661   -4.7822 C   0  0  0  0  0  0  0  0  0  0  0  0
   -5.2422    0.3082   -2.7684 C   0  0  0  0  0  0  0  0  0  0  0  0
   -6.4544    0.6683   -3.3825 O   0  0  0  0  0  0  0  0  0  0  0  0
   -6.4279    1.5184   -4.5240 C   0  0  0  0  0  0  0  0  0  0  0  0
   -4.6606    1.0195   -1.7658 C   0  0  0  0  0  0  0  0  0  0  0  0
   -5.2997    2.1776   -1.3140 O   0  0  0  0  0  0  0  0  0  0  0  0
   -4.6745    2.9153   -0.2580 C   0  0  0  0  0  0  0  0  0  0  0  0
   -3.4623    0.5967   -1.2123 C   0  0  0  0  0  0  0  0  0  0  0  0
  1  2  1  0
  2  3  1  0
  3  4  1  0
  4  5  1  0
  5  6  2  0
  6  7  1  0
  7  8  1  0
  8  9  1  0
  9 10  2  0
 10 11  1  0
 11 12  2  0
 12 13  1  0
 12 14  1  0
 14 15  2  0
 15 16  1  0
  7 17  2  0
 17 18  1  0
 18 19  2  0
 19 20  1  0
 20 21  1  0
 21 22  1  0
 22 23  2  0
 23 24  1  0
 24 25  1  0
 25 26  1  0
 24 27  2  0
 27 28  1  0
 28 29  1  0
 27 30  1  0
 30 31  1  0
 31 32  1  0
 30 33  2  0
 19  5  1  0
 33 22  1  0
 15  9  1  0
M  END
>  <zinc_id>  (508) 
ZINC000013472742

>  <ortholog_name>  (508) 
DRTS_PLAFK

>  <gene_name>  (508) 
DRTS_PLAFK

>  <affinity>  (508) 
5.37

>  <chembldocid>  (508) 
16871

>  <title>  (508) 
None

>  <reference.pubmed_id>  (508) 
11881993

>  <reference.doi>  (508) 
None

>  <reference.chembl_id>  (508) 
CHEMBL1135602

>  <reference.journal>  (508) 
J. Med. Chem.

>  <reference.year>  (508) 
2002

$$$$

     RDKit          3D

 33 35  0  0  0  0  0  0  0  0999 V2000
    0.9572    3.4903    1.6425 C   0  0  0  0  0  0  0  0  0  0  0  0
    1.1390    2.6890    2.9256 C   0  0  0  0  0  0  0  0  0  0  0  0
   -0.2069    2.0345    3.2696 C   0  0  0  0  0  0  0  0  0  0  0  0
   -0.5071    1.2014    2.1392 O   0  0  0  0  0  0  0  0  0  0  0  0
    0.3543    0.1679    1.7641 C   0  0  0  0  0  0  0  0  0  0  0  0
    1.5214   -0.1116    2.4420 C   0  0  0  0  0  0  0  0  0  0  0  0
    2.3246   -1.1404    2.0231 C   0  0  0  0  0  0  0  0  0  0  0  0
    3.5581   -1.4464    2.7337 C   0  0  0  0  0  0  0  0  0  0  0  0
    4.7300   -0.6992    2.2683 C   0  0  0  0  0  0  0  0  0  0  0  0
    5.2329    0.3719    3.0037 C   0  0  0  0  0  0  0  0  0  0  0  0
    6.3095    1.0300    2.5422 N   0  0  0  0  0  0  0  0  0  0  0  0
    6.9454    0.7193    1.3990 C   0  0  0  0  0  0  0  0  0  0  0  0
    8.0841    1.4773    0.9892 N   0  0  0  0  0  0  0  0  0  0  0  0
    6.4786   -0.3102    0.6725 N   0  0  0  0  0  0  0  0  0  0  0  0
    5.3891   -1.0109    1.0963 C   0  0  0  0  0  0  0  0  0  0  0  0
    4.8752   -2.1146    0.3322 N   0  0  0  0  0  0  0  0  0  0  0  0
    1.9464   -1.8747    0.9304 C   0  0  0  0  0  0  0  0  0  0  0  0
    0.7814   -1.5923    0.2576 C   0  0  0  0  0  0  0  0  0  0  0  0
   -0.0390   -0.5686    0.6567 C   0  0  0  0  0  0  0  0  0  0  0  0
   -1.2317   -0.2677   -0.0193 O   0  0  0  0  0  0  0  0  0  0  0  0
   -1.5644   -1.0674   -1.1376 C   0  0  0  0  0  0  0  0  0  0  0  0
   -2.8487   -0.5649   -1.6861 C   0  0  0  0  0  0  0  0  0  0  0  0
   -3.4801   -1.2395   -2.6964 C   0  0  0  0  0  0  0  0  0  0  0  0
   -4.6597   -0.8531   -3.2649 C   0  0  0  0  0  0  0  0  0  0  0  0
   -5.2252   -1.5913   -4.2764 O   0  0  0  0  0  0  0  0  0  0  0  0
   -4.6428   -2.7661   -4.7822 C   0  0  0  0  0  0  0  0  0  0  0  0
   -5.2422    0.3082   -2.7684 C   0  0  0  0  0  0  0  0  0  0  0  0
   -6.4544    0.6683   -3.3825 O   0  0  0  0  0  0  0  0  0  0  0  0
   -6.4279    1.5184   -4.5240 C   0  0  0  0  0  0  0  0  0  0  0  0
   -4.6606    1.0195   -1.7658 C   0  0  0  0  0  0  0  0  0  0  0  0
   -5.2997    2.1776   -1.3140 O   0  0  0  0  0  0  0  0  0  0  0  0
   -4.6745    2.9153   -0.2580 C   0  0  0  0  0  0  0  0  0  0  0  0
   -3.4623    0.5967   -1.2123 C   0  0  0  0  0  0  0  0  0  0  0  0
  1  2  1  0
  2  3  1  0
  3  4  1  0
  4  5  1  0
  5  6  2  0
  6  7  1  0
  7  8  1  0
  8  9  1  0
  9 10  2  0
 10 11  1  0
 11 12  2  0
 12 13  1  0
 12 14  1  0
 14 15  2  0
 15 16  1  0
  7 17  2  0
 17 18  1  0
 18 19  2  0
 19 20  1  0
 20 21  1  0
 21 22  1  0
 22 23  2  0
 23 24  1  0
 24 25  1  0
 25 26  1  0
 24 27  2  0
 27 28  1  0
 28 29  1  0
 27 30  1  0
 30 31  1  0
 31 32  1  0
 30 33  2  0
 19  5  1  0
 33 22  1  0
 15  9  1  0
M  END
>  <zinc_id>  (509) 
ZINC000013472742

>  <ortholog_name>  (509) 
DRTS_PLAFK

>  <gene_name>  (509) 
DRTS_PLAFK

>  <affinity>  (509) 
8.25

>  <chembldocid>  (509) 
17636

>  <title>  (509) 
None

>  <reference.pubmed_id>  (509) 
14711307

>  <reference.doi>  (509) 
None

>  <reference.chembl_id>  (509) 
CHEMBL1148379

>  <reference.journal>  (509) 
J. Med. Chem.

>  <reference.year>  (509) 
2004

$$$$

     RDKit          3D

 33 35  0  0  0  0  0  0  0  0999 V2000
    0.9572    3.4903    1.6425 C   0  0  0  0  0  0  0  0  0  0  0  0
    1.1390    2.6890    2.9256 C   0  0  0  0  0  0  0  0  0  0  0  0
   -0.2069    2.0345    3.2696 C   0  0  0  0  0  0  0  0  0  0  0  0
   -0.5071    1.2014    2.1392 O   0  0  0  0  0  0  0  0  0  0  0  0
    0.3543    0.1679    1.7641 C   0  0  0  0  0  0  0  0  0  0  0  0
    1.5214   -0.1116    2.4420 C   0  0  0  0  0  0  0  0  0  0  0  0
    2.3246   -1.1404    2.0231 C   0  0  0  0  0  0  0  0  0  0  0  0
    3.5581   -1.4464    2.7337 C   0  0  0  0  0  0  0  0  0  0  0  0
    4.7300   -0.6992    2.2683 C   0  0  0  0  0  0  0  0  0  0  0  0
    5.2329    0.3719    3.0037 C   0  0  0  0  0  0  0  0  0  0  0  0
    6.3095    1.0300    2.5422 N   0  0  0  0  0  0  0  0  0  0  0  0
    6.9454    0.7193    1.3990 C   0  0  0  0  0  0  0  0  0  0  0  0
    8.0841    1.4773    0.9892 N   0  0  0  0  0  0  0  0  0  0  0  0
    6.4786   -0.3102    0.6725 N   0  0  0  0  0  0  0  0  0  0  0  0
    5.3891   -1.0109    1.0963 C   0  0  0  0  0  0  0  0  0  0  0  0
    4.8752   -2.1146    0.3322 N   0  0  0  0  0  0  0  0  0  0  0  0
    1.9464   -1.8747    0.9304 C   0  0  0  0  0  0  0  0  0  0  0  0
    0.7814   -1.5923    0.2576 C   0  0  0  0  0  0  0  0  0  0  0  0
   -0.0390   -0.5686    0.6567 C   0  0  0  0  0  0  0  0  0  0  0  0
   -1.2317   -0.2677   -0.0193 O   0  0  0  0  0  0  0  0  0  0  0  0
   -1.5644   -1.0674   -1.1376 C   0  0  0  0  0  0  0  0  0  0  0  0
   -2.8487   -0.5649   -1.6861 C   0  0  0  0  0  0  0  0  0  0  0  0
   -3.4801   -1.2395   -2.6964 C   0  0  0  0  0  0  0  0  0  0  0  0
   -4.6597   -0.8531   -3.2649 C   0  0  0  0  0  0  0  0  0  0  0  0
   -5.2252   -1.5913   -4.2764 O   0  0  0  0  0  0  0  0  0  0  0  0
   -4.6428   -2.7661   -4.7822 C   0  0  0  0  0  0  0  0  0  0  0  0
   -5.2422    0.3082   -2.7684 C   0  0  0  0  0  0  0  0  0  0  0  0
   -6.4544    0.6683   -3.3825 O   0  0  0  0  0  0  0  0  0  0  0  0
   -6.4279    1.5184   -4.5240 C   0  0  0  0  0  0  0  0  0  0  0  0
   -4.6606    1.0195   -1.7658 C   0  0  0  0  0  0  0  0  0  0  0  0
   -5.2997    2.1776   -1.3140 O   0  0  0  0  0  0  0  0  0  0  0  0
   -4.6745    2.9153   -0.2580 C   0  0  0  0  0  0  0  0  0  0  0  0
   -3.4623    0.5967   -1.2123 C   0  0  0  0  0  0  0  0  0  0  0  0
  1  2  1  0
  2  3  1  0
  3  4  1  0
  4  5  1  0
  5  6  2  0
  6  7  1  0
  7  8  1  0
  8  9  1  0
  9 10  2  0
 10 11  1  0
 11 12  2  0
 12 13  1  0
 12 14  1  0
 14 15  2  0
 15 16  1  0
  7 17  2  0
 17 18  1  0
 18 19  2  0
 19 20  1  0
 20 21  1  0
 21 22  1  0
 22 23  2  0
 23 24  1  0
 24 25  1  0
 25 26  1  0
 24 27  2  0
 27 28  1  0
 28 29  1  0
 27 30  1  0
 30 31  1  0
 31 32  1  0
 30 33  2  0
 19  5  1  0
 33 22  1  0
 15  9  1  0
M  END
>  <zinc_id>  (510) 
ZINC000013472742

>  <ortholog_name>  (510) 
DRTS_PLAFK

>  <gene_name>  (510) 
DRTS_PLAFK

>  <affinity>  (510) 
7.30

>  <chembldocid>  (510) 
17636

>  <title>  (510) 
None

>  <reference.pubmed_id>  (510) 
14711307

>  <reference.doi>  (510) 
None

>  <reference.chembl_id>  (510) 
CHEMBL1148379

>  <reference.journal>  (510) 
J. Med. Chem.

>  <reference.year>  (510) 
2004

$$$$

     RDKit          3D

 33 35  0  0  0  0  0  0  0  0999 V2000
    0.9572    3.4903    1.6425 C   0  0  0  0  0  0  0  0  0  0  0  0
    1.1390    2.6890    2.9256 C   0  0  0  0  0  0  0  0  0  0  0  0
   -0.2069    2.0345    3.2696 C   0  0  0  0  0  0  0  0  0  0  0  0
   -0.5071    1.2014    2.1392 O   0  0  0  0  0  0  0  0  0  0  0  0
    0.3543    0.1679    1.7641 C   0  0  0  0  0  0  0  0  0  0  0  0
    1.5214   -0.1116    2.4420 C   0  0  0  0  0  0  0  0  0  0  0  0
    2.3246   -1.1404    2.0231 C   0  0  0  0  0  0  0  0  0  0  0  0
    3.5581   -1.4464    2.7337 C   0  0  0  0  0  0  0  0  0  0  0  0
    4.7300   -0.6992    2.2683 C   0  0  0  0  0  0  0  0  0  0  0  0
    5.2329    0.3719    3.0037 C   0  0  0  0  0  0  0  0  0  0  0  0
    6.3095    1.0300    2.5422 N   0  0  0  0  0  0  0  0  0  0  0  0
    6.9454    0.7193    1.3990 C   0  0  0  0  0  0  0  0  0  0  0  0
    8.0841    1.4773    0.9892 N   0  0  0  0  0  0  0  0  0  0  0  0
    6.4786   -0.3102    0.6725 N   0  0  0  0  0  0  0  0  0  0  0  0
    5.3891   -1.0109    1.0963 C   0  0  0  0  0  0  0  0  0  0  0  0
    4.8752   -2.1146    0.3322 N   0  0  0  0  0  0  0  0  0  0  0  0
    1.9464   -1.8747    0.9304 C   0  0  0  0  0  0  0  0  0  0  0  0
    0.7814   -1.5923    0.2576 C   0  0  0  0  0  0  0  0  0  0  0  0
   -0.0390   -0.5686    0.6567 C   0  0  0  0  0  0  0  0  0  0  0  0
   -1.2317   -0.2677   -0.0193 O   0  0  0  0  0  0  0  0  0  0  0  0
   -1.5644   -1.0674   -1.1376 C   0  0  0  0  0  0  0  0  0  0  0  0
   -2.8487   -0.5649   -1.6861 C   0  0  0  0  0  0  0  0  0  0  0  0
   -3.4801   -1.2395   -2.6964 C   0  0  0  0  0  0  0  0  0  0  0  0
   -4.6597   -0.8531   -3.2649 C   0  0  0  0  0  0  0  0  0  0  0  0
   -5.2252   -1.5913   -4.2764 O   0  0  0  0  0  0  0  0  0  0  0  0
   -4.6428   -2.7661   -4.7822 C   0  0  0  0  0  0  0  0  0  0  0  0
   -5.2422    0.3082   -2.7684 C   0  0  0  0  0  0  0  0  0  0  0  0
   -6.4544    0.6683   -3.3825 O   0  0  0  0  0  0  0  0  0  0  0  0
   -6.4279    1.5184   -4.5240 C   0  0  0  0  0  0  0  0  0  0  0  0
   -4.6606    1.0195   -1.7658 C   0  0  0  0  0  0  0  0  0  0  0  0
   -5.2997    2.1776   -1.3140 O   0  0  0  0  0  0  0  0  0  0  0  0
   -4.6745    2.9153   -0.2580 C   0  0  0  0  0  0  0  0  0  0  0  0
   -3.4623    0.5967   -1.2123 C   0  0  0  0  0  0  0  0  0  0  0  0
  1  2  1  0
  2  3  1  0
  3  4  1  0
  4  5  1  0
  5  6  2  0
  6  7  1  0
  7  8  1  0
  8  9  1  0
  9 10  2  0
 10 11  1  0
 11 12  2  0
 12 13  1  0
 12 14  1  0
 14 15  2  0
 15 16  1  0
  7 17  2  0
 17 18  1  0
 18 19  2  0
 19 20  1  0
 20 21  1  0
 21 22  1  0
 22 23  2  0
 23 24  1  0
 24 25  1  0
 25 26  1  0
 24 27  2  0
 27 28  1  0
 28 29  1  0
 27 30  1  0
 30 31  1  0
 31 32  1  0
 30 33  2  0
 19  5  1  0
 33 22  1  0
 15  9  1  0
M  END
>  <zinc_id>  (511) 
ZINC000013472742

>  <ortholog_name>  (511) 
DRTS_PLAFK

>  <gene_name>  (511) 
DRTS_PLAFK

>  <affinity>  (511) 
7.22

>  <chembldocid>  (511) 
17636

>  <title>  (511) 
None

>  <reference.pubmed_id>  (511) 
14711307

>  <reference.doi>  (511) 
None

>  <reference.chembl_id>  (511) 
CHEMBL1148379

>  <reference.journal>  (511) 
J. Med. Chem.

>  <reference.year>  (511) 
2004

$$$$

     RDKit          3D

 33 35  0  0  0  0  0  0  0  0999 V2000
    0.9572    3.4903    1.6425 C   0  0  0  0  0  0  0  0  0  0  0  0
    1.1390    2.6890    2.9256 C   0  0  0  0  0  0  0  0  0  0  0  0
   -0.2069    2.0345    3.2696 C   0  0  0  0  0  0  0  0  0  0  0  0
   -0.5071    1.2014    2.1392 O   0  0  0  0  0  0  0  0  0  0  0  0
    0.3543    0.1679    1.7641 C   0  0  0  0  0  0  0  0  0  0  0  0
    1.5214   -0.1116    2.4420 C   0  0  0  0  0  0  0  0  0  0  0  0
    2.3246   -1.1404    2.0231 C   0  0  0  0  0  0  0  0  0  0  0  0
    3.5581   -1.4464    2.7337 C   0  0  0  0  0  0  0  0  0  0  0  0
    4.7300   -0.6992    2.2683 C   0  0  0  0  0  0  0  0  0  0  0  0
    5.2329    0.3719    3.0037 C   0  0  0  0  0  0  0  0  0  0  0  0
    6.3095    1.0300    2.5422 N   0  0  0  0  0  0  0  0  0  0  0  0
    6.9454    0.7193    1.3990 C   0  0  0  0  0  0  0  0  0  0  0  0
    8.0841    1.4773    0.9892 N   0  0  0  0  0  0  0  0  0  0  0  0
    6.4786   -0.3102    0.6725 N   0  0  0  0  0  0  0  0  0  0  0  0
    5.3891   -1.0109    1.0963 C   0  0  0  0  0  0  0  0  0  0  0  0
    4.8752   -2.1146    0.3322 N   0  0  0  0  0  0  0  0  0  0  0  0
    1.9464   -1.8747    0.9304 C   0  0  0  0  0  0  0  0  0  0  0  0
    0.7814   -1.5923    0.2576 C   0  0  0  0  0  0  0  0  0  0  0  0
   -0.0390   -0.5686    0.6567 C   0  0  0  0  0  0  0  0  0  0  0  0
   -1.2317   -0.2677   -0.0193 O   0  0  0  0  0  0  0  0  0  0  0  0
   -1.5644   -1.0674   -1.1376 C   0  0  0  0  0  0  0  0  0  0  0  0
   -2.8487   -0.5649   -1.6861 C   0  0  0  0  0  0  0  0  0  0  0  0
   -3.4801   -1.2395   -2.6964 C   0  0  0  0  0  0  0  0  0  0  0  0
   -4.6597   -0.8531   -3.2649 C   0  0  0  0  0  0  0  0  0  0  0  0
   -5.2252   -1.5913   -4.2764 O   0  0  0  0  0  0  0  0  0  0  0  0
   -4.6428   -2.7661   -4.7822 C   0  0  0  0  0  0  0  0  0  0  0  0
   -5.2422    0.3082   -2.7684 C   0  0  0  0  0  0  0  0  0  0  0  0
   -6.4544    0.6683   -3.3825 O   0  0  0  0  0  0  0  0  0  0  0  0
   -6.4279    1.5184   -4.5240 C   0  0  0  0  0  0  0  0  0  0  0  0
   -4.6606    1.0195   -1.7658 C   0  0  0  0  0  0  0  0  0  0  0  0
   -5.2997    2.1776   -1.3140 O   0  0  0  0  0  0  0  0  0  0  0  0
   -4.6745    2.9153   -0.2580 C   0  0  0  0  0  0  0  0  0  0  0  0
   -3.4623    0.5967   -1.2123 C   0  0  0  0  0  0  0  0  0  0  0  0
  1  2  1  0
  2  3  1  0
  3  4  1  0
  4  5  1  0
  5  6  2  0
  6  7  1  0
  7  8  1  0
  8  9  1  0
  9 10  2  0
 10 11  1  0
 11 12  2  0
 12 13  1  0
 12 14  1  0
 14 15  2  0
 15 16  1  0
  7 17  2  0
 17 18  1  0
 18 19  2  0
 19 20  1  0
 20 21  1  0
 21 22  1  0
 22 23  2  0
 23 24  1  0
 24 25  1  0
 25 26  1  0
 24 27  2  0
 27 28  1  0
 28 29  1  0
 27 30  1  0
 30 31  1  0
 31 32  1  0
 30 33  2  0
 19  5  1  0
 33 22  1  0
 15  9  1  0
M  END
>  <zinc_id>  (512) 
ZINC000013472742

>  <ortholog_name>  (512) 
DRTS_PLAFK

>  <gene_name>  (512) 
DRTS_PLAFK

>  <affinity>  (512) 
5.11

>  <chembldocid>  (512) 
17636

>  <title>  (512) 
None

>  <reference.pubmed_id>  (512) 
14711307

>  <reference.doi>  (512) 
None

>  <reference.chembl_id>  (512) 
CHEMBL1148379

>  <reference.journal>  (512) 
J. Med. Chem.

>  <reference.year>  (512) 
2004

$$$$

     RDKit          3D

 33 35  0  0  0  0  0  0  0  0999 V2000
    0.9572    3.4903    1.6425 C   0  0  0  0  0  0  0  0  0  0  0  0
    1.1390    2.6890    2.9256 C   0  0  0  0  0  0  0  0  0  0  0  0
   -0.2069    2.0345    3.2696 C   0  0  0  0  0  0  0  0  0  0  0  0
   -0.5071    1.2014    2.1392 O   0  0  0  0  0  0  0  0  0  0  0  0
    0.3543    0.1679    1.7641 C   0  0  0  0  0  0  0  0  0  0  0  0
    1.5214   -0.1116    2.4420 C   0  0  0  0  0  0  0  0  0  0  0  0
    2.3246   -1.1404    2.0231 C   0  0  0  0  0  0  0  0  0  0  0  0
    3.5581   -1.4464    2.7337 C   0  0  0  0  0  0  0  0  0  0  0  0
    4.7300   -0.6992    2.2683 C   0  0  0  0  0  0  0  0  0  0  0  0
    5.2329    0.3719    3.0037 C   0  0  0  0  0  0  0  0  0  0  0  0
    6.3095    1.0300    2.5422 N   0  0  0  0  0  0  0  0  0  0  0  0
    6.9454    0.7193    1.3990 C   0  0  0  0  0  0  0  0  0  0  0  0
    8.0841    1.4773    0.9892 N   0  0  0  0  0  0  0  0  0  0  0  0
    6.4786   -0.3102    0.6725 N   0  0  0  0  0  0  0  0  0  0  0  0
    5.3891   -1.0109    1.0963 C   0  0  0  0  0  0  0  0  0  0  0  0
    4.8752   -2.1146    0.3322 N   0  0  0  0  0  0  0  0  0  0  0  0
    1.9464   -1.8747    0.9304 C   0  0  0  0  0  0  0  0  0  0  0  0
    0.7814   -1.5923    0.2576 C   0  0  0  0  0  0  0  0  0  0  0  0
   -0.0390   -0.5686    0.6567 C   0  0  0  0  0  0  0  0  0  0  0  0
   -1.2317   -0.2677   -0.0193 O   0  0  0  0  0  0  0  0  0  0  0  0
   -1.5644   -1.0674   -1.1376 C   0  0  0  0  0  0  0  0  0  0  0  0
   -2.8487   -0.5649   -1.6861 C   0  0  0  0  0  0  0  0  0  0  0  0
   -3.4801   -1.2395   -2.6964 C   0  0  0  0  0  0  0  0  0  0  0  0
   -4.6597   -0.8531   -3.2649 C   0  0  0  0  0  0  0  0  0  0  0  0
   -5.2252   -1.5913   -4.2764 O   0  0  0  0  0  0  0  0  0  0  0  0
   -4.6428   -2.7661   -4.7822 C   0  0  0  0  0  0  0  0  0  0  0  0
   -5.2422    0.3082   -2.7684 C   0  0  0  0  0  0  0  0  0  0  0  0
   -6.4544    0.6683   -3.3825 O   0  0  0  0  0  0  0  0  0  0  0  0
   -6.4279    1.5184   -4.5240 C   0  0  0  0  0  0  0  0  0  0  0  0
   -4.6606    1.0195   -1.7658 C   0  0  0  0  0  0  0  0  0  0  0  0
   -5.2997    2.1776   -1.3140 O   0  0  0  0  0  0  0  0  0  0  0  0
   -4.6745    2.9153   -0.2580 C   0  0  0  0  0  0  0  0  0  0  0  0
   -3.4623    0.5967   -1.2123 C   0  0  0  0  0  0  0  0  0  0  0  0
  1  2  1  0
  2  3  1  0
  3  4  1  0
  4  5  1  0
  5  6  2  0
  6  7  1  0
  7  8  1  0
  8  9  1  0
  9 10  2  0
 10 11  1  0
 11 12  2  0
 12 13  1  0
 12 14  1  0
 14 15  2  0
 15 16  1  0
  7 17  2  0
 17 18  1  0
 18 19  2  0
 19 20  1  0
 20 21  1  0
 21 22  1  0
 22 23  2  0
 23 24  1  0
 24 25  1  0
 25 26  1  0
 24 27  2  0
 27 28  1  0
 28 29  1  0
 27 30  1  0
 30 31  1  0
 31 32  1  0
 30 33  2  0
 19  5  1  0
 33 22  1  0
 15  9  1  0
M  END
>  <zinc_id>  (513) 
ZINC000013472742

>  <ortholog_name>  (513) 
DRTS_PLAFK

>  <gene_name>  (513) 
DRTS_PLAFK

>  <affinity>  (513) 
5.01

>  <chembldocid>  (513) 
17636

>  <title>  (513) 
None

>  <reference.pubmed_id>  (513) 
14711307

>  <reference.doi>  (513) 
None

>  <reference.chembl_id>  (513) 
CHEMBL1148379

>  <reference.journal>  (513) 
J. Med. Chem.

>  <reference.year>  (513) 
2004

$$$$

     RDKit          3D

 34 36  0  0  0  0  0  0  0  0999 V2000
   -3.1158    5.2554   -1.6560 C   0  0  0  0  0  0  0  0  0  0  0  0
   -3.3191    3.7956   -1.2666 C   0  0  0  0  0  0  0  0  0  0  0  0
   -3.0106    3.6045    0.2098 C   0  0  0  0  0  0  0  0  0  0  0  0
   -1.5975    3.9813    0.5257 C   0  0  0  0  0  0  0  0  0  0  0  0
   -0.6408    3.2278   -0.1681 O   0  0  0  0  0  0  0  0  0  0  0  0
   -0.6403    1.8326    0.0304 C   0  0  0  0  0  0  0  0  0  0  0  0
   -1.5432    1.2322    0.8696 C   0  0  0  0  0  0  0  0  0  0  0  0
   -1.5712   -0.1160    1.0854 C   0  0  0  0  0  0  0  0  0  0  0  0
   -2.5158   -0.8349    1.9616 C   0  0  0  0  0  0  0  0  0  0  0  0
   -3.6267   -1.3916    1.1488 C   0  0  0  0  0  0  0  0  0  0  0  0
   -3.6678   -2.7475    0.8187 C   0  0  0  0  0  0  0  0  0  0  0  0
   -4.6600   -3.2478    0.0818 N   0  0  0  0  0  0  0  0  0  0  0  0
   -5.6656   -2.4734   -0.3783 C   0  0  0  0  0  0  0  0  0  0  0  0
   -6.7221   -3.0254   -1.1688 N   0  0  0  0  0  0  0  0  0  0  0  0
   -5.6309   -1.1603   -0.0616 N   0  0  0  0  0  0  0  0  0  0  0  0
   -4.6559   -0.6111    0.6759 C   0  0  0  0  0  0  0  0  0  0  0  0
   -4.6662    0.7800    0.9868 N   0  0  0  0  0  0  0  0  0  0  0  0
   -0.6308   -0.9103    0.4136 C   0  0  0  0  0  0  0  0  0  0  0  0
    0.2631   -0.3065   -0.4190 C   0  0  0  0  0  0  0  0  0  0  0  0
    0.2813    1.0424   -0.6263 C   0  0  0  0  0  0  0  0  0  0  0  0
    1.1702    1.6646   -1.4580 O   0  0  0  0  0  0  0  0  0  0  0  0
    2.1353    0.9386   -2.1609 C   0  0  0  0  0  0  0  0  0  0  0  0
    3.0249    0.2290   -1.2180 C   0  0  0  0  0  0  0  0  0  0  0  0
    4.0586    0.8838   -0.5449 C   0  0  0  0  0  0  0  0  0  0  0  0
    4.9121    0.2433    0.3329 C   0  0  0  0  0  0  0  0  0  0  0  0
    5.9370    0.8982    0.9989 O   0  0  0  0  0  0  0  0  0  0  0  0
    6.0859    2.2814    0.7462 C   0  0  0  0  0  0  0  0  0  0  0  0
    4.7548   -1.1036    0.5706 C   0  0  0  0  0  0  0  0  0  0  0  0
    5.6162   -1.7303    1.4524 O   0  0  0  0  0  0  0  0  0  0  0  0
    6.8352   -2.3316    1.0711 C   0  0  0  0  0  0  0  0  0  0  0  0
    3.7346   -1.7881   -0.0834 C   0  0  0  0  0  0  0  0  0  0  0  0
    3.5973   -3.1432    0.1731 O   0  0  0  0  0  0  0  0  0  0  0  0
    2.5689   -3.8529   -0.4793 C   0  0  0  0  0  0  0  0  0  0  0  0
    2.9046   -1.1162   -0.9504 C   0  0  0  0  0  0  0  0  0  0  0  0
  1  2  1  0
  2  3  1  0
  3  4  1  0
  4  5  1  0
  5  6  1  0
  6  7  2  0
  7  8  1  0
  8  9  1  0
  9 10  1  0
 10 11  2  0
 11 12  1  0
 12 13  2  0
 13 14  1  0
 13 15  1  0
 15 16  2  0
 16 17  1  0
  8 18  2  0
 18 19  1  0
 19 20  2  0
 20 21  1  0
 21 22  1  0
 22 23  1  0
 23 24  2  0
 24 25  1  0
 25 26  1  0
 26 27  1  0
 25 28  2  0
 28 29  1  0
 29 30  1  0
 28 31  1  0
 31 32  1  0
 32 33  1  0
 31 34  2  0
 20  6  1  0
 34 23  1  0
 16 10  1  0
M  END
>  <zinc_id>  (514) 
ZINC000013472743

>  <ortholog_name>  (514) 
DRTS_PLAFK

>  <gene_name>  (514) 
DRTS_PLAFK

>  <affinity>  (514) 
9.40

>  <chembldocid>  (514) 
16871

>  <title>  (514) 
None

>  <reference.pubmed_id>  (514) 
11881993

>  <reference.doi>  (514) 
None

>  <reference.chembl_id>  (514) 
CHEMBL1135602

>  <reference.journal>  (514) 
J. Med. Chem.

>  <reference.year>  (514) 
2002

$$$$

     RDKit          3D

 34 36  0  0  0  0  0  0  0  0999 V2000
   -3.1158    5.2554   -1.6560 C   0  0  0  0  0  0  0  0  0  0  0  0
   -3.3191    3.7956   -1.2666 C   0  0  0  0  0  0  0  0  0  0  0  0
   -3.0106    3.6045    0.2098 C   0  0  0  0  0  0  0  0  0  0  0  0
   -1.5975    3.9813    0.5257 C   0  0  0  0  0  0  0  0  0  0  0  0
   -0.6408    3.2278   -0.1681 O   0  0  0  0  0  0  0  0  0  0  0  0
   -0.6403    1.8326    0.0304 C   0  0  0  0  0  0  0  0  0  0  0  0
   -1.5432    1.2322    0.8696 C   0  0  0  0  0  0  0  0  0  0  0  0
   -1.5712   -0.1160    1.0854 C   0  0  0  0  0  0  0  0  0  0  0  0
   -2.5158   -0.8349    1.9616 C   0  0  0  0  0  0  0  0  0  0  0  0
   -3.6267   -1.3916    1.1488 C   0  0  0  0  0  0  0  0  0  0  0  0
   -3.6678   -2.7475    0.8187 C   0  0  0  0  0  0  0  0  0  0  0  0
   -4.6600   -3.2478    0.0818 N   0  0  0  0  0  0  0  0  0  0  0  0
   -5.6656   -2.4734   -0.3783 C   0  0  0  0  0  0  0  0  0  0  0  0
   -6.7221   -3.0254   -1.1688 N   0  0  0  0  0  0  0  0  0  0  0  0
   -5.6309   -1.1603   -0.0616 N   0  0  0  0  0  0  0  0  0  0  0  0
   -4.6559   -0.6111    0.6759 C   0  0  0  0  0  0  0  0  0  0  0  0
   -4.6662    0.7800    0.9868 N   0  0  0  0  0  0  0  0  0  0  0  0
   -0.6308   -0.9103    0.4136 C   0  0  0  0  0  0  0  0  0  0  0  0
    0.2631   -0.3065   -0.4190 C   0  0  0  0  0  0  0  0  0  0  0  0
    0.2813    1.0424   -0.6263 C   0  0  0  0  0  0  0  0  0  0  0  0
    1.1702    1.6646   -1.4580 O   0  0  0  0  0  0  0  0  0  0  0  0
    2.1353    0.9386   -2.1609 C   0  0  0  0  0  0  0  0  0  0  0  0
    3.0249    0.2290   -1.2180 C   0  0  0  0  0  0  0  0  0  0  0  0
    4.0586    0.8838   -0.5449 C   0  0  0  0  0  0  0  0  0  0  0  0
    4.9121    0.2433    0.3329 C   0  0  0  0  0  0  0  0  0  0  0  0
    5.9370    0.8982    0.9989 O   0  0  0  0  0  0  0  0  0  0  0  0
    6.0859    2.2814    0.7462 C   0  0  0  0  0  0  0  0  0  0  0  0
    4.7548   -1.1036    0.5706 C   0  0  0  0  0  0  0  0  0  0  0  0
    5.6162   -1.7303    1.4524 O   0  0  0  0  0  0  0  0  0  0  0  0
    6.8352   -2.3316    1.0711 C   0  0  0  0  0  0  0  0  0  0  0  0
    3.7346   -1.7881   -0.0834 C   0  0  0  0  0  0  0  0  0  0  0  0
    3.5973   -3.1432    0.1731 O   0  0  0  0  0  0  0  0  0  0  0  0
    2.5689   -3.8529   -0.4793 C   0  0  0  0  0  0  0  0  0  0  0  0
    2.9046   -1.1162   -0.9504 C   0  0  0  0  0  0  0  0  0  0  0  0
  1  2  1  0
  2  3  1  0
  3  4  1  0
  4  5  1  0
  5  6  1  0
  6  7  2  0
  7  8  1  0
  8  9  1  0
  9 10  1  0
 10 11  2  0
 11 12  1  0
 12 13  2  0
 13 14  1  0
 13 15  1  0
 15 16  2  0
 16 17  1  0
  8 18  2  0
 18 19  1  0
 19 20  2  0
 20 21  1  0
 21 22  1  0
 22 23  1  0
 23 24  2  0
 24 25  1  0
 25 26  1  0
 26 27  1  0
 25 28  2  0
 28 29  1  0
 29 30  1  0
 28 31  1  0
 31 32  1  0
 32 33  1  0
 31 34  2  0
 20  6  1  0
 34 23  1  0
 16 10  1  0
M  END
>  <zinc_id>  (515) 
ZINC000013472743

>  <ortholog_name>  (515) 
DRTS_PLAFK

>  <gene_name>  (515) 
DRTS_PLAFK

>  <affinity>  (515) 
9.40

>  <chembldocid>  (515) 
17636

>  <title>  (515) 
None

>  <reference.pubmed_id>  (515) 
14711307

>  <reference.doi>  (515) 
None

>  <reference.chembl_id>  (515) 
CHEMBL1148379

>  <reference.journal>  (515) 
J. Med. Chem.

>  <reference.year>  (515) 
2004

$$$$

     RDKit          3D

 34 36  0  0  0  0  0  0  0  0999 V2000
   -3.1158    5.2554   -1.6560 C   0  0  0  0  0  0  0  0  0  0  0  0
   -3.3191    3.7956   -1.2666 C   0  0  0  0  0  0  0  0  0  0  0  0
   -3.0106    3.6045    0.2098 C   0  0  0  0  0  0  0  0  0  0  0  0
   -1.5975    3.9813    0.5257 C   0  0  0  0  0  0  0  0  0  0  0  0
   -0.6408    3.2278   -0.1681 O   0  0  0  0  0  0  0  0  0  0  0  0
   -0.6403    1.8326    0.0304 C   0  0  0  0  0  0  0  0  0  0  0  0
   -1.5432    1.2322    0.8696 C   0  0  0  0  0  0  0  0  0  0  0  0
   -1.5712   -0.1160    1.0854 C   0  0  0  0  0  0  0  0  0  0  0  0
   -2.5158   -0.8349    1.9616 C   0  0  0  0  0  0  0  0  0  0  0  0
   -3.6267   -1.3916    1.1488 C   0  0  0  0  0  0  0  0  0  0  0  0
   -3.6678   -2.7475    0.8187 C   0  0  0  0  0  0  0  0  0  0  0  0
   -4.6600   -3.2478    0.0818 N   0  0  0  0  0  0  0  0  0  0  0  0
   -5.6656   -2.4734   -0.3783 C   0  0  0  0  0  0  0  0  0  0  0  0
   -6.7221   -3.0254   -1.1688 N   0  0  0  0  0  0  0  0  0  0  0  0
   -5.6309   -1.1603   -0.0616 N   0  0  0  0  0  0  0  0  0  0  0  0
   -4.6559   -0.6111    0.6759 C   0  0  0  0  0  0  0  0  0  0  0  0
   -4.6662    0.7800    0.9868 N   0  0  0  0  0  0  0  0  0  0  0  0
   -0.6308   -0.9103    0.4136 C   0  0  0  0  0  0  0  0  0  0  0  0
    0.2631   -0.3065   -0.4190 C   0  0  0  0  0  0  0  0  0  0  0  0
    0.2813    1.0424   -0.6263 C   0  0  0  0  0  0  0  0  0  0  0  0
    1.1702    1.6646   -1.4580 O   0  0  0  0  0  0  0  0  0  0  0  0
    2.1353    0.9386   -2.1609 C   0  0  0  0  0  0  0  0  0  0  0  0
    3.0249    0.2290   -1.2180 C   0  0  0  0  0  0  0  0  0  0  0  0
    4.0586    0.8838   -0.5449 C   0  0  0  0  0  0  0  0  0  0  0  0
    4.9121    0.2433    0.3329 C   0  0  0  0  0  0  0  0  0  0  0  0
    5.9370    0.8982    0.9989 O   0  0  0  0  0  0  0  0  0  0  0  0
    6.0859    2.2814    0.7462 C   0  0  0  0  0  0  0  0  0  0  0  0
    4.7548   -1.1036    0.5706 C   0  0  0  0  0  0  0  0  0  0  0  0
    5.6162   -1.7303    1.4524 O   0  0  0  0  0  0  0  0  0  0  0  0
    6.8352   -2.3316    1.0711 C   0  0  0  0  0  0  0  0  0  0  0  0
    3.7346   -1.7881   -0.0834 C   0  0  0  0  0  0  0  0  0  0  0  0
    3.5973   -3.1432    0.1731 O   0  0  0  0  0  0  0  0  0  0  0  0
    2.5689   -3.8529   -0.4793 C   0  0  0  0  0  0  0  0  0  0  0  0
    2.9046   -1.1162   -0.9504 C   0  0  0  0  0  0  0  0  0  0  0  0
  1  2  1  0
  2  3  1  0
  3  4  1  0
  4  5  1  0
  5  6  1  0
  6  7  2  0
  7  8  1  0
  8  9  1  0
  9 10  1  0
 10 11  2  0
 11 12  1  0
 12 13  2  0
 13 14  1  0
 13 15  1  0
 15 16  2  0
 16 17  1  0
  8 18  2  0
 18 19  1  0
 19 20  2  0
 20 21  1  0
 21 22  1  0
 22 23  1  0
 23 24  2  0
 24 25  1  0
 25 26  1  0
 26 27  1  0
 25 28  2  0
 28 29  1  0
 29 30  1  0
 28 31  1  0
 31 32  1  0
 32 33  1  0
 31 34  2  0
 20  6  1  0
 34 23  1  0
 16 10  1  0
M  END
>  <zinc_id>  (516) 
ZINC000013472743

>  <ortholog_name>  (516) 
DRTS_PLAFK

>  <gene_name>  (516) 
DRTS_PLAFK

>  <affinity>  (516) 
8.77

>  <chembldocid>  (516) 
16871

>  <title>  (516) 
None

>  <reference.pubmed_id>  (516) 
11881993

>  <reference.doi>  (516) 
None

>  <reference.chembl_id>  (516) 
CHEMBL1135602

>  <reference.journal>  (516) 
J. Med. Chem.

>  <reference.year>  (516) 
2002

$$$$

     RDKit          3D

 34 36  0  0  0  0  0  0  0  0999 V2000
   -3.1158    5.2554   -1.6560 C   0  0  0  0  0  0  0  0  0  0  0  0
   -3.3191    3.7956   -1.2666 C   0  0  0  0  0  0  0  0  0  0  0  0
   -3.0106    3.6045    0.2098 C   0  0  0  0  0  0  0  0  0  0  0  0
   -1.5975    3.9813    0.5257 C   0  0  0  0  0  0  0  0  0  0  0  0
   -0.6408    3.2278   -0.1681 O   0  0  0  0  0  0  0  0  0  0  0  0
   -0.6403    1.8326    0.0304 C   0  0  0  0  0  0  0  0  0  0  0  0
   -1.5432    1.2322    0.8696 C   0  0  0  0  0  0  0  0  0  0  0  0
   -1.5712   -0.1160    1.0854 C   0  0  0  0  0  0  0  0  0  0  0  0
   -2.5158   -0.8349    1.9616 C   0  0  0  0  0  0  0  0  0  0  0  0
   -3.6267   -1.3916    1.1488 C   0  0  0  0  0  0  0  0  0  0  0  0
   -3.6678   -2.7475    0.8187 C   0  0  0  0  0  0  0  0  0  0  0  0
   -4.6600   -3.2478    0.0818 N   0  0  0  0  0  0  0  0  0  0  0  0
   -5.6656   -2.4734   -0.3783 C   0  0  0  0  0  0  0  0  0  0  0  0
   -6.7221   -3.0254   -1.1688 N   0  0  0  0  0  0  0  0  0  0  0  0
   -5.6309   -1.1603   -0.0616 N   0  0  0  0  0  0  0  0  0  0  0  0
   -4.6559   -0.6111    0.6759 C   0  0  0  0  0  0  0  0  0  0  0  0
   -4.6662    0.7800    0.9868 N   0  0  0  0  0  0  0  0  0  0  0  0
   -0.6308   -0.9103    0.4136 C   0  0  0  0  0  0  0  0  0  0  0  0
    0.2631   -0.3065   -0.4190 C   0  0  0  0  0  0  0  0  0  0  0  0
    0.2813    1.0424   -0.6263 C   0  0  0  0  0  0  0  0  0  0  0  0
    1.1702    1.6646   -1.4580 O   0  0  0  0  0  0  0  0  0  0  0  0
    2.1353    0.9386   -2.1609 C   0  0  0  0  0  0  0  0  0  0  0  0
    3.0249    0.2290   -1.2180 C   0  0  0  0  0  0  0  0  0  0  0  0
    4.0586    0.8838   -0.5449 C   0  0  0  0  0  0  0  0  0  0  0  0
    4.9121    0.2433    0.3329 C   0  0  0  0  0  0  0  0  0  0  0  0
    5.9370    0.8982    0.9989 O   0  0  0  0  0  0  0  0  0  0  0  0
    6.0859    2.2814    0.7462 C   0  0  0  0  0  0  0  0  0  0  0  0
    4.7548   -1.1036    0.5706 C   0  0  0  0  0  0  0  0  0  0  0  0
    5.6162   -1.7303    1.4524 O   0  0  0  0  0  0  0  0  0  0  0  0
    6.8352   -2.3316    1.0711 C   0  0  0  0  0  0  0  0  0  0  0  0
    3.7346   -1.7881   -0.0834 C   0  0  0  0  0  0  0  0  0  0  0  0
    3.5973   -3.1432    0.1731 O   0  0  0  0  0  0  0  0  0  0  0  0
    2.5689   -3.8529   -0.4793 C   0  0  0  0  0  0  0  0  0  0  0  0
    2.9046   -1.1162   -0.9504 C   0  0  0  0  0  0  0  0  0  0  0  0
  1  2  1  0
  2  3  1  0
  3  4  1  0
  4  5  1  0
  5  6  1  0
  6  7  2  0
  7  8  1  0
  8  9  1  0
  9 10  1  0
 10 11  2  0
 11 12  1  0
 12 13  2  0
 13 14  1  0
 13 15  1  0
 15 16  2  0
 16 17  1  0
  8 18  2  0
 18 19  1  0
 19 20  2  0
 20 21  1  0
 21 22  1  0
 22 23  1  0
 23 24  2  0
 24 25  1  0
 25 26  1  0
 26 27  1  0
 25 28  2  0
 28 29  1  0
 29 30  1  0
 28 31  1  0
 31 32  1  0
 32 33  1  0
 31 34  2  0
 20  6  1  0
 34 23  1  0
 16 10  1  0
M  END
>  <zinc_id>  (517) 
ZINC000013472743

>  <ortholog_name>  (517) 
DRTS_PLAFK

>  <gene_name>  (517) 
DRTS_PLAFK

>  <affinity>  (517) 
6.98

>  <chembldocid>  (517) 
17636

>  <title>  (517) 
None

>  <reference.pubmed_id>  (517) 
14711307

>  <reference.doi>  (517) 
None

>  <reference.chembl_id>  (517) 
CHEMBL1148379

>  <reference.journal>  (517) 
J. Med. Chem.

>  <reference.year>  (517) 
2004

$$$$

     RDKit          3D

 34 36  0  0  0  0  0  0  0  0999 V2000
   -3.1158    5.2554   -1.6560 C   0  0  0  0  0  0  0  0  0  0  0  0
   -3.3191    3.7956   -1.2666 C   0  0  0  0  0  0  0  0  0  0  0  0
   -3.0106    3.6045    0.2098 C   0  0  0  0  0  0  0  0  0  0  0  0
   -1.5975    3.9813    0.5257 C   0  0  0  0  0  0  0  0  0  0  0  0
   -0.6408    3.2278   -0.1681 O   0  0  0  0  0  0  0  0  0  0  0  0
   -0.6403    1.8326    0.0304 C   0  0  0  0  0  0  0  0  0  0  0  0
   -1.5432    1.2322    0.8696 C   0  0  0  0  0  0  0  0  0  0  0  0
   -1.5712   -0.1160    1.0854 C   0  0  0  0  0  0  0  0  0  0  0  0
   -2.5158   -0.8349    1.9616 C   0  0  0  0  0  0  0  0  0  0  0  0
   -3.6267   -1.3916    1.1488 C   0  0  0  0  0  0  0  0  0  0  0  0
   -3.6678   -2.7475    0.8187 C   0  0  0  0  0  0  0  0  0  0  0  0
   -4.6600   -3.2478    0.0818 N   0  0  0  0  0  0  0  0  0  0  0  0
   -5.6656   -2.4734   -0.3783 C   0  0  0  0  0  0  0  0  0  0  0  0
   -6.7221   -3.0254   -1.1688 N   0  0  0  0  0  0  0  0  0  0  0  0
   -5.6309   -1.1603   -0.0616 N   0  0  0  0  0  0  0  0  0  0  0  0
   -4.6559   -0.6111    0.6759 C   0  0  0  0  0  0  0  0  0  0  0  0
   -4.6662    0.7800    0.9868 N   0  0  0  0  0  0  0  0  0  0  0  0
   -0.6308   -0.9103    0.4136 C   0  0  0  0  0  0  0  0  0  0  0  0
    0.2631   -0.3065   -0.4190 C   0  0  0  0  0  0  0  0  0  0  0  0
    0.2813    1.0424   -0.6263 C   0  0  0  0  0  0  0  0  0  0  0  0
    1.1702    1.6646   -1.4580 O   0  0  0  0  0  0  0  0  0  0  0  0
    2.1353    0.9386   -2.1609 C   0  0  0  0  0  0  0  0  0  0  0  0
    3.0249    0.2290   -1.2180 C   0  0  0  0  0  0  0  0  0  0  0  0
    4.0586    0.8838   -0.5449 C   0  0  0  0  0  0  0  0  0  0  0  0
    4.9121    0.2433    0.3329 C   0  0  0  0  0  0  0  0  0  0  0  0
    5.9370    0.8982    0.9989 O   0  0  0  0  0  0  0  0  0  0  0  0
    6.0859    2.2814    0.7462 C   0  0  0  0  0  0  0  0  0  0  0  0
    4.7548   -1.1036    0.5706 C   0  0  0  0  0  0  0  0  0  0  0  0
    5.6162   -1.7303    1.4524 O   0  0  0  0  0  0  0  0  0  0  0  0
    6.8352   -2.3316    1.0711 C   0  0  0  0  0  0  0  0  0  0  0  0
    3.7346   -1.7881   -0.0834 C   0  0  0  0  0  0  0  0  0  0  0  0
    3.5973   -3.1432    0.1731 O   0  0  0  0  0  0  0  0  0  0  0  0
    2.5689   -3.8529   -0.4793 C   0  0  0  0  0  0  0  0  0  0  0  0
    2.9046   -1.1162   -0.9504 C   0  0  0  0  0  0  0  0  0  0  0  0
  1  2  1  0
  2  3  1  0
  3  4  1  0
  4  5  1  0
  5  6  1  0
  6  7  2  0
  7  8  1  0
  8  9  1  0
  9 10  1  0
 10 11  2  0
 11 12  1  0
 12 13  2  0
 13 14  1  0
 13 15  1  0
 15 16  2  0
 16 17  1  0
  8 18  2  0
 18 19  1  0
 19 20  2  0
 20 21  1  0
 21 22  1  0
 22 23  1  0
 23 24  2  0
 24 25  1  0
 25 26  1  0
 26 27  1  0
 25 28  2  0
 28 29  1  0
 29 30  1  0
 28 31  1  0
 31 32  1  0
 32 33  1  0
 31 34  2  0
 20  6  1  0
 34 23  1  0
 16 10  1  0
M  END
>  <zinc_id>  (518) 
ZINC000013472743

>  <ortholog_name>  (518) 
DRTS_PLAFK

>  <gene_name>  (518) 
DRTS_PLAFK

>  <affinity>  (518) 
6.89

>  <chembldocid>  (518) 
17636

>  <title>  (518) 
None

>  <reference.pubmed_id>  (518) 
14711307

>  <reference.doi>  (518) 
None

>  <reference.chembl_id>  (518) 
CHEMBL1148379

>  <reference.journal>  (518) 
J. Med. Chem.

>  <reference.year>  (518) 
2004

$$$$

     RDKit          3D

 34 36  0  0  0  0  0  0  0  0999 V2000
   -3.1158    5.2554   -1.6560 C   0  0  0  0  0  0  0  0  0  0  0  0
   -3.3191    3.7956   -1.2666 C   0  0  0  0  0  0  0  0  0  0  0  0
   -3.0106    3.6045    0.2098 C   0  0  0  0  0  0  0  0  0  0  0  0
   -1.5975    3.9813    0.5257 C   0  0  0  0  0  0  0  0  0  0  0  0
   -0.6408    3.2278   -0.1681 O   0  0  0  0  0  0  0  0  0  0  0  0
   -0.6403    1.8326    0.0304 C   0  0  0  0  0  0  0  0  0  0  0  0
   -1.5432    1.2322    0.8696 C   0  0  0  0  0  0  0  0  0  0  0  0
   -1.5712   -0.1160    1.0854 C   0  0  0  0  0  0  0  0  0  0  0  0
   -2.5158   -0.8349    1.9616 C   0  0  0  0  0  0  0  0  0  0  0  0
   -3.6267   -1.3916    1.1488 C   0  0  0  0  0  0  0  0  0  0  0  0
   -3.6678   -2.7475    0.8187 C   0  0  0  0  0  0  0  0  0  0  0  0
   -4.6600   -3.2478    0.0818 N   0  0  0  0  0  0  0  0  0  0  0  0
   -5.6656   -2.4734   -0.3783 C   0  0  0  0  0  0  0  0  0  0  0  0
   -6.7221   -3.0254   -1.1688 N   0  0  0  0  0  0  0  0  0  0  0  0
   -5.6309   -1.1603   -0.0616 N   0  0  0  0  0  0  0  0  0  0  0  0
   -4.6559   -0.6111    0.6759 C   0  0  0  0  0  0  0  0  0  0  0  0
   -4.6662    0.7800    0.9868 N   0  0  0  0  0  0  0  0  0  0  0  0
   -0.6308   -0.9103    0.4136 C   0  0  0  0  0  0  0  0  0  0  0  0
    0.2631   -0.3065   -0.4190 C   0  0  0  0  0  0  0  0  0  0  0  0
    0.2813    1.0424   -0.6263 C   0  0  0  0  0  0  0  0  0  0  0  0
    1.1702    1.6646   -1.4580 O   0  0  0  0  0  0  0  0  0  0  0  0
    2.1353    0.9386   -2.1609 C   0  0  0  0  0  0  0  0  0  0  0  0
    3.0249    0.2290   -1.2180 C   0  0  0  0  0  0  0  0  0  0  0  0
    4.0586    0.8838   -0.5449 C   0  0  0  0  0  0  0  0  0  0  0  0
    4.9121    0.2433    0.3329 C   0  0  0  0  0  0  0  0  0  0  0  0
    5.9370    0.8982    0.9989 O   0  0  0  0  0  0  0  0  0  0  0  0
    6.0859    2.2814    0.7462 C   0  0  0  0  0  0  0  0  0  0  0  0
    4.7548   -1.1036    0.5706 C   0  0  0  0  0  0  0  0  0  0  0  0
    5.6162   -1.7303    1.4524 O   0  0  0  0  0  0  0  0  0  0  0  0
    6.8352   -2.3316    1.0711 C   0  0  0  0  0  0  0  0  0  0  0  0
    3.7346   -1.7881   -0.0834 C   0  0  0  0  0  0  0  0  0  0  0  0
    3.5973   -3.1432    0.1731 O   0  0  0  0  0  0  0  0  0  0  0  0
    2.5689   -3.8529   -0.4793 C   0  0  0  0  0  0  0  0  0  0  0  0
    2.9046   -1.1162   -0.9504 C   0  0  0  0  0  0  0  0  0  0  0  0
  1  2  1  0
  2  3  1  0
  3  4  1  0
  4  5  1  0
  5  6  1  0
  6  7  2  0
  7  8  1  0
  8  9  1  0
  9 10  1  0
 10 11  2  0
 11 12  1  0
 12 13  2  0
 13 14  1  0
 13 15  1  0
 15 16  2  0
 16 17  1  0
  8 18  2  0
 18 19  1  0
 19 20  2  0
 20 21  1  0
 21 22  1  0
 22 23  1  0
 23 24  2  0
 24 25  1  0
 25 26  1  0
 26 27  1  0
 25 28  2  0
 28 29  1  0
 29 30  1  0
 28 31  1  0
 31 32  1  0
 32 33  1  0
 31 34  2  0
 20  6  1  0
 34 23  1  0
 16 10  1  0
M  END
>  <zinc_id>  (519) 
ZINC000013472743

>  <ortholog_name>  (519) 
DRTS_PLAFK

>  <gene_name>  (519) 
DRTS_PLAFK

>  <affinity>  (519) 
6.59

>  <chembldocid>  (519) 
17636

>  <title>  (519) 
None

>  <reference.pubmed_id>  (519) 
14711307

>  <reference.doi>  (519) 
None

>  <reference.chembl_id>  (519) 
CHEMBL1148379

>  <reference.journal>  (519) 
J. Med. Chem.

>  <reference.year>  (519) 
2004

$$$$

     RDKit          3D

 34 36  0  0  0  0  0  0  0  0999 V2000
   -3.1158    5.2554   -1.6560 C   0  0  0  0  0  0  0  0  0  0  0  0
   -3.3191    3.7956   -1.2666 C   0  0  0  0  0  0  0  0  0  0  0  0
   -3.0106    3.6045    0.2098 C   0  0  0  0  0  0  0  0  0  0  0  0
   -1.5975    3.9813    0.5257 C   0  0  0  0  0  0  0  0  0  0  0  0
   -0.6408    3.2278   -0.1681 O   0  0  0  0  0  0  0  0  0  0  0  0
   -0.6403    1.8326    0.0304 C   0  0  0  0  0  0  0  0  0  0  0  0
   -1.5432    1.2322    0.8696 C   0  0  0  0  0  0  0  0  0  0  0  0
   -1.5712   -0.1160    1.0854 C   0  0  0  0  0  0  0  0  0  0  0  0
   -2.5158   -0.8349    1.9616 C   0  0  0  0  0  0  0  0  0  0  0  0
   -3.6267   -1.3916    1.1488 C   0  0  0  0  0  0  0  0  0  0  0  0
   -3.6678   -2.7475    0.8187 C   0  0  0  0  0  0  0  0  0  0  0  0
   -4.6600   -3.2478    0.0818 N   0  0  0  0  0  0  0  0  0  0  0  0
   -5.6656   -2.4734   -0.3783 C   0  0  0  0  0  0  0  0  0  0  0  0
   -6.7221   -3.0254   -1.1688 N   0  0  0  0  0  0  0  0  0  0  0  0
   -5.6309   -1.1603   -0.0616 N   0  0  0  0  0  0  0  0  0  0  0  0
   -4.6559   -0.6111    0.6759 C   0  0  0  0  0  0  0  0  0  0  0  0
   -4.6662    0.7800    0.9868 N   0  0  0  0  0  0  0  0  0  0  0  0
   -0.6308   -0.9103    0.4136 C   0  0  0  0  0  0  0  0  0  0  0  0
    0.2631   -0.3065   -0.4190 C   0  0  0  0  0  0  0  0  0  0  0  0
    0.2813    1.0424   -0.6263 C   0  0  0  0  0  0  0  0  0  0  0  0
    1.1702    1.6646   -1.4580 O   0  0  0  0  0  0  0  0  0  0  0  0
    2.1353    0.9386   -2.1609 C   0  0  0  0  0  0  0  0  0  0  0  0
    3.0249    0.2290   -1.2180 C   0  0  0  0  0  0  0  0  0  0  0  0
    4.0586    0.8838   -0.5449 C   0  0  0  0  0  0  0  0  0  0  0  0
    4.9121    0.2433    0.3329 C   0  0  0  0  0  0  0  0  0  0  0  0
    5.9370    0.8982    0.9989 O   0  0  0  0  0  0  0  0  0  0  0  0
    6.0859    2.2814    0.7462 C   0  0  0  0  0  0  0  0  0  0  0  0
    4.7548   -1.1036    0.5706 C   0  0  0  0  0  0  0  0  0  0  0  0
    5.6162   -1.7303    1.4524 O   0  0  0  0  0  0  0  0  0  0  0  0
    6.8352   -2.3316    1.0711 C   0  0  0  0  0  0  0  0  0  0  0  0
    3.7346   -1.7881   -0.0834 C   0  0  0  0  0  0  0  0  0  0  0  0
    3.5973   -3.1432    0.1731 O   0  0  0  0  0  0  0  0  0  0  0  0
    2.5689   -3.8529   -0.4793 C   0  0  0  0  0  0  0  0  0  0  0  0
    2.9046   -1.1162   -0.9504 C   0  0  0  0  0  0  0  0  0  0  0  0
  1  2  1  0
  2  3  1  0
  3  4  1  0
  4  5  1  0
  5  6  1  0
  6  7  2  0
  7  8  1  0
  8  9  1  0
  9 10  1  0
 10 11  2  0
 11 12  1  0
 12 13  2  0
 13 14  1  0
 13 15  1  0
 15 16  2  0
 16 17  1  0
  8 18  2  0
 18 19  1  0
 19 20  2  0
 20 21  1  0
 21 22  1  0
 22 23  1  0
 23 24  2  0
 24 25  1  0
 25 26  1  0
 26 27  1  0
 25 28  2  0
 28 29  1  0
 29 30  1  0
 28 31  1  0
 31 32  1  0
 32 33  1  0
 31 34  2  0
 20  6  1  0
 34 23  1  0
 16 10  1  0
M  END
>  <zinc_id>  (520) 
ZINC000013472743

>  <ortholog_name>  (520) 
DRTS_PLAFK

>  <gene_name>  (520) 
DRTS_PLAFK

>  <affinity>  (520) 
7.52

>  <chembldocid>  (520) 
17636

>  <title>  (520) 
None

>  <reference.pubmed_id>  (520) 
14711307

>  <reference.doi>  (520) 
None

>  <reference.chembl_id>  (520) 
CHEMBL1148379

>  <reference.journal>  (520) 
J. Med. Chem.

>  <reference.year>  (520) 
2004

$$$$

     RDKit          3D

 34 36  0  0  0  0  0  0  0  0999 V2000
   -3.1158    5.2554   -1.6560 C   0  0  0  0  0  0  0  0  0  0  0  0
   -3.3191    3.7956   -1.2666 C   0  0  0  0  0  0  0  0  0  0  0  0
   -3.0106    3.6045    0.2098 C   0  0  0  0  0  0  0  0  0  0  0  0
   -1.5975    3.9813    0.5257 C   0  0  0  0  0  0  0  0  0  0  0  0
   -0.6408    3.2278   -0.1681 O   0  0  0  0  0  0  0  0  0  0  0  0
   -0.6403    1.8326    0.0304 C   0  0  0  0  0  0  0  0  0  0  0  0
   -1.5432    1.2322    0.8696 C   0  0  0  0  0  0  0  0  0  0  0  0
   -1.5712   -0.1160    1.0854 C   0  0  0  0  0  0  0  0  0  0  0  0
   -2.5158   -0.8349    1.9616 C   0  0  0  0  0  0  0  0  0  0  0  0
   -3.6267   -1.3916    1.1488 C   0  0  0  0  0  0  0  0  0  0  0  0
   -3.6678   -2.7475    0.8187 C   0  0  0  0  0  0  0  0  0  0  0  0
   -4.6600   -3.2478    0.0818 N   0  0  0  0  0  0  0  0  0  0  0  0
   -5.6656   -2.4734   -0.3783 C   0  0  0  0  0  0  0  0  0  0  0  0
   -6.7221   -3.0254   -1.1688 N   0  0  0  0  0  0  0  0  0  0  0  0
   -5.6309   -1.1603   -0.0616 N   0  0  0  0  0  0  0  0  0  0  0  0
   -4.6559   -0.6111    0.6759 C   0  0  0  0  0  0  0  0  0  0  0  0
   -4.6662    0.7800    0.9868 N   0  0  0  0  0  0  0  0  0  0  0  0
   -0.6308   -0.9103    0.4136 C   0  0  0  0  0  0  0  0  0  0  0  0
    0.2631   -0.3065   -0.4190 C   0  0  0  0  0  0  0  0  0  0  0  0
    0.2813    1.0424   -0.6263 C   0  0  0  0  0  0  0  0  0  0  0  0
    1.1702    1.6646   -1.4580 O   0  0  0  0  0  0  0  0  0  0  0  0
    2.1353    0.9386   -2.1609 C   0  0  0  0  0  0  0  0  0  0  0  0
    3.0249    0.2290   -1.2180 C   0  0  0  0  0  0  0  0  0  0  0  0
    4.0586    0.8838   -0.5449 C   0  0  0  0  0  0  0  0  0  0  0  0
    4.9121    0.2433    0.3329 C   0  0  0  0  0  0  0  0  0  0  0  0
    5.9370    0.8982    0.9989 O   0  0  0  0  0  0  0  0  0  0  0  0
    6.0859    2.2814    0.7462 C   0  0  0  0  0  0  0  0  0  0  0  0
    4.7548   -1.1036    0.5706 C   0  0  0  0  0  0  0  0  0  0  0  0
    5.6162   -1.7303    1.4524 O   0  0  0  0  0  0  0  0  0  0  0  0
    6.8352   -2.3316    1.0711 C   0  0  0  0  0  0  0  0  0  0  0  0
    3.7346   -1.7881   -0.0834 C   0  0  0  0  0  0  0  0  0  0  0  0
    3.5973   -3.1432    0.1731 O   0  0  0  0  0  0  0  0  0  0  0  0
    2.5689   -3.8529   -0.4793 C   0  0  0  0  0  0  0  0  0  0  0  0
    2.9046   -1.1162   -0.9504 C   0  0  0  0  0  0  0  0  0  0  0  0
  1  2  1  0
  2  3  1  0
  3  4  1  0
  4  5  1  0
  5  6  1  0
  6  7  2  0
  7  8  1  0
  8  9  1  0
  9 10  1  0
 10 11  2  0
 11 12  1  0
 12 13  2  0
 13 14  1  0
 13 15  1  0
 15 16  2  0
 16 17  1  0
  8 18  2  0
 18 19  1  0
 19 20  2  0
 20 21  1  0
 21 22  1  0
 22 23  1  0
 23 24  2  0
 24 25  1  0
 25 26  1  0
 26 27  1  0
 25 28  2  0
 28 29  1  0
 29 30  1  0
 28 31  1  0
 31 32  1  0
 32 33  1  0
 31 34  2  0
 20  6  1  0
 34 23  1  0
 16 10  1  0
M  END
>  <zinc_id>  (521) 
ZINC000013472743

>  <ortholog_name>  (521) 
DRTS_PLAFK

>  <gene_name>  (521) 
DRTS_PLAFK

>  <affinity>  (521) 
6.48

>  <chembldocid>  (521) 
17636

>  <title>  (521) 
None

>  <reference.pubmed_id>  (521) 
14711307

>  <reference.doi>  (521) 
None

>  <reference.chembl_id>  (521) 
CHEMBL1148379

>  <reference.journal>  (521) 
J. Med. Chem.

>  <reference.year>  (521) 
2004

$$$$

     RDKit          3D

 34 36  0  0  0  0  0  0  0  0999 V2000
   -3.1158    5.2554   -1.6560 C   0  0  0  0  0  0  0  0  0  0  0  0
   -3.3191    3.7956   -1.2666 C   0  0  0  0  0  0  0  0  0  0  0  0
   -3.0106    3.6045    0.2098 C   0  0  0  0  0  0  0  0  0  0  0  0
   -1.5975    3.9813    0.5257 C   0  0  0  0  0  0  0  0  0  0  0  0
   -0.6408    3.2278   -0.1681 O   0  0  0  0  0  0  0  0  0  0  0  0
   -0.6403    1.8326    0.0304 C   0  0  0  0  0  0  0  0  0  0  0  0
   -1.5432    1.2322    0.8696 C   0  0  0  0  0  0  0  0  0  0  0  0
   -1.5712   -0.1160    1.0854 C   0  0  0  0  0  0  0  0  0  0  0  0
   -2.5158   -0.8349    1.9616 C   0  0  0  0  0  0  0  0  0  0  0  0
   -3.6267   -1.3916    1.1488 C   0  0  0  0  0  0  0  0  0  0  0  0
   -3.6678   -2.7475    0.8187 C   0  0  0  0  0  0  0  0  0  0  0  0
   -4.6600   -3.2478    0.0818 N   0  0  0  0  0  0  0  0  0  0  0  0
   -5.6656   -2.4734   -0.3783 C   0  0  0  0  0  0  0  0  0  0  0  0
   -6.7221   -3.0254   -1.1688 N   0  0  0  0  0  0  0  0  0  0  0  0
   -5.6309   -1.1603   -0.0616 N   0  0  0  0  0  0  0  0  0  0  0  0
   -4.6559   -0.6111    0.6759 C   0  0  0  0  0  0  0  0  0  0  0  0
   -4.6662    0.7800    0.9868 N   0  0  0  0  0  0  0  0  0  0  0  0
   -0.6308   -0.9103    0.4136 C   0  0  0  0  0  0  0  0  0  0  0  0
    0.2631   -0.3065   -0.4190 C   0  0  0  0  0  0  0  0  0  0  0  0
    0.2813    1.0424   -0.6263 C   0  0  0  0  0  0  0  0  0  0  0  0
    1.1702    1.6646   -1.4580 O   0  0  0  0  0  0  0  0  0  0  0  0
    2.1353    0.9386   -2.1609 C   0  0  0  0  0  0  0  0  0  0  0  0
    3.0249    0.2290   -1.2180 C   0  0  0  0  0  0  0  0  0  0  0  0
    4.0586    0.8838   -0.5449 C   0  0  0  0  0  0  0  0  0  0  0  0
    4.9121    0.2433    0.3329 C   0  0  0  0  0  0  0  0  0  0  0  0
    5.9370    0.8982    0.9989 O   0  0  0  0  0  0  0  0  0  0  0  0
    6.0859    2.2814    0.7462 C   0  0  0  0  0  0  0  0  0  0  0  0
    4.7548   -1.1036    0.5706 C   0  0  0  0  0  0  0  0  0  0  0  0
    5.6162   -1.7303    1.4524 O   0  0  0  0  0  0  0  0  0  0  0  0
    6.8352   -2.3316    1.0711 C   0  0  0  0  0  0  0  0  0  0  0  0
    3.7346   -1.7881   -0.0834 C   0  0  0  0  0  0  0  0  0  0  0  0
    3.5973   -3.1432    0.1731 O   0  0  0  0  0  0  0  0  0  0  0  0
    2.5689   -3.8529   -0.4793 C   0  0  0  0  0  0  0  0  0  0  0  0
    2.9046   -1.1162   -0.9504 C   0  0  0  0  0  0  0  0  0  0  0  0
  1  2  1  0
  2  3  1  0
  3  4  1  0
  4  5  1  0
  5  6  1  0
  6  7  2  0
  7  8  1  0
  8  9  1  0
  9 10  1  0
 10 11  2  0
 11 12  1  0
 12 13  2  0
 13 14  1  0
 13 15  1  0
 15 16  2  0
 16 17  1  0
  8 18  2  0
 18 19  1  0
 19 20  2  0
 20 21  1  0
 21 22  1  0
 22 23  1  0
 23 24  2  0
 24 25  1  0
 25 26  1  0
 26 27  1  0
 25 28  2  0
 28 29  1  0
 29 30  1  0
 28 31  1  0
 31 32  1  0
 32 33  1  0
 31 34  2  0
 20  6  1  0
 34 23  1  0
 16 10  1  0
M  END
>  <zinc_id>  (522) 
ZINC000013472743

>  <ortholog_name>  (522) 
DRTS_PLAFK

>  <gene_name>  (522) 
DRTS_PLAFK

>  <affinity>  (522) 
5.47

>  <chembldocid>  (522) 
17636

>  <title>  (522) 
None

>  <reference.pubmed_id>  (522) 
14711307

>  <reference.doi>  (522) 
None

>  <reference.chembl_id>  (522) 
CHEMBL1148379

>  <reference.journal>  (522) 
J. Med. Chem.

>  <reference.year>  (522) 
2004

$$$$

     RDKit          3D

 34 36  0  0  0  0  0  0  0  0999 V2000
   -3.1158    5.2554   -1.6560 C   0  0  0  0  0  0  0  0  0  0  0  0
   -3.3191    3.7956   -1.2666 C   0  0  0  0  0  0  0  0  0  0  0  0
   -3.0106    3.6045    0.2098 C   0  0  0  0  0  0  0  0  0  0  0  0
   -1.5975    3.9813    0.5257 C   0  0  0  0  0  0  0  0  0  0  0  0
   -0.6408    3.2278   -0.1681 O   0  0  0  0  0  0  0  0  0  0  0  0
   -0.6403    1.8326    0.0304 C   0  0  0  0  0  0  0  0  0  0  0  0
   -1.5432    1.2322    0.8696 C   0  0  0  0  0  0  0  0  0  0  0  0
   -1.5712   -0.1160    1.0854 C   0  0  0  0  0  0  0  0  0  0  0  0
   -2.5158   -0.8349    1.9616 C   0  0  0  0  0  0  0  0  0  0  0  0
   -3.6267   -1.3916    1.1488 C   0  0  0  0  0  0  0  0  0  0  0  0
   -3.6678   -2.7475    0.8187 C   0  0  0  0  0  0  0  0  0  0  0  0
   -4.6600   -3.2478    0.0818 N   0  0  0  0  0  0  0  0  0  0  0  0
   -5.6656   -2.4734   -0.3783 C   0  0  0  0  0  0  0  0  0  0  0  0
   -6.7221   -3.0254   -1.1688 N   0  0  0  0  0  0  0  0  0  0  0  0
   -5.6309   -1.1603   -0.0616 N   0  0  0  0  0  0  0  0  0  0  0  0
   -4.6559   -0.6111    0.6759 C   0  0  0  0  0  0  0  0  0  0  0  0
   -4.6662    0.7800    0.9868 N   0  0  0  0  0  0  0  0  0  0  0  0
   -0.6308   -0.9103    0.4136 C   0  0  0  0  0  0  0  0  0  0  0  0
    0.2631   -0.3065   -0.4190 C   0  0  0  0  0  0  0  0  0  0  0  0
    0.2813    1.0424   -0.6263 C   0  0  0  0  0  0  0  0  0  0  0  0
    1.1702    1.6646   -1.4580 O   0  0  0  0  0  0  0  0  0  0  0  0
    2.1353    0.9386   -2.1609 C   0  0  0  0  0  0  0  0  0  0  0  0
    3.0249    0.2290   -1.2180 C   0  0  0  0  0  0  0  0  0  0  0  0
    4.0586    0.8838   -0.5449 C   0  0  0  0  0  0  0  0  0  0  0  0
    4.9121    0.2433    0.3329 C   0  0  0  0  0  0  0  0  0  0  0  0
    5.9370    0.8982    0.9989 O   0  0  0  0  0  0  0  0  0  0  0  0
    6.0859    2.2814    0.7462 C   0  0  0  0  0  0  0  0  0  0  0  0
    4.7548   -1.1036    0.5706 C   0  0  0  0  0  0  0  0  0  0  0  0
    5.6162   -1.7303    1.4524 O   0  0  0  0  0  0  0  0  0  0  0  0
    6.8352   -2.3316    1.0711 C   0  0  0  0  0  0  0  0  0  0  0  0
    3.7346   -1.7881   -0.0834 C   0  0  0  0  0  0  0  0  0  0  0  0
    3.5973   -3.1432    0.1731 O   0  0  0  0  0  0  0  0  0  0  0  0
    2.5689   -3.8529   -0.4793 C   0  0  0  0  0  0  0  0  0  0  0  0
    2.9046   -1.1162   -0.9504 C   0  0  0  0  0  0  0  0  0  0  0  0
  1  2  1  0
  2  3  1  0
  3  4  1  0
  4  5  1  0
  5  6  1  0
  6  7  2  0
  7  8  1  0
  8  9  1  0
  9 10  1  0
 10 11  2  0
 11 12  1  0
 12 13  2  0
 13 14  1  0
 13 15  1  0
 15 16  2  0
 16 17  1  0
  8 18  2  0
 18 19  1  0
 19 20  2  0
 20 21  1  0
 21 22  1  0
 22 23  1  0
 23 24  2  0
 24 25  1  0
 25 26  1  0
 26 27  1  0
 25 28  2  0
 28 29  1  0
 29 30  1  0
 28 31  1  0
 31 32  1  0
 32 33  1  0
 31 34  2  0
 20  6  1  0
 34 23  1  0
 16 10  1  0
M  END
>  <zinc_id>  (523) 
ZINC000013472743

>  <ortholog_name>  (523) 
DRTS_PLAFK

>  <gene_name>  (523) 
DRTS_PLAFK

>  <affinity>  (523) 
8.25

>  <chembldocid>  (523) 
16871

>  <title>  (523) 
None

>  <reference.pubmed_id>  (523) 
11881993

>  <reference.doi>  (523) 
None

>  <reference.chembl_id>  (523) 
CHEMBL1135602

>  <reference.journal>  (523) 
J. Med. Chem.

>  <reference.year>  (523) 
2002

$$$$

     RDKit          3D

 34 36  0  0  0  0  0  0  0  0999 V2000
   -3.1158    5.2554   -1.6560 C   0  0  0  0  0  0  0  0  0  0  0  0
   -3.3191    3.7956   -1.2666 C   0  0  0  0  0  0  0  0  0  0  0  0
   -3.0106    3.6045    0.2098 C   0  0  0  0  0  0  0  0  0  0  0  0
   -1.5975    3.9813    0.5257 C   0  0  0  0  0  0  0  0  0  0  0  0
   -0.6408    3.2278   -0.1681 O   0  0  0  0  0  0  0  0  0  0  0  0
   -0.6403    1.8326    0.0304 C   0  0  0  0  0  0  0  0  0  0  0  0
   -1.5432    1.2322    0.8696 C   0  0  0  0  0  0  0  0  0  0  0  0
   -1.5712   -0.1160    1.0854 C   0  0  0  0  0  0  0  0  0  0  0  0
   -2.5158   -0.8349    1.9616 C   0  0  0  0  0  0  0  0  0  0  0  0
   -3.6267   -1.3916    1.1488 C   0  0  0  0  0  0  0  0  0  0  0  0
   -3.6678   -2.7475    0.8187 C   0  0  0  0  0  0  0  0  0  0  0  0
   -4.6600   -3.2478    0.0818 N   0  0  0  0  0  0  0  0  0  0  0  0
   -5.6656   -2.4734   -0.3783 C   0  0  0  0  0  0  0  0  0  0  0  0
   -6.7221   -3.0254   -1.1688 N   0  0  0  0  0  0  0  0  0  0  0  0
   -5.6309   -1.1603   -0.0616 N   0  0  0  0  0  0  0  0  0  0  0  0
   -4.6559   -0.6111    0.6759 C   0  0  0  0  0  0  0  0  0  0  0  0
   -4.6662    0.7800    0.9868 N   0  0  0  0  0  0  0  0  0  0  0  0
   -0.6308   -0.9103    0.4136 C   0  0  0  0  0  0  0  0  0  0  0  0
    0.2631   -0.3065   -0.4190 C   0  0  0  0  0  0  0  0  0  0  0  0
    0.2813    1.0424   -0.6263 C   0  0  0  0  0  0  0  0  0  0  0  0
    1.1702    1.6646   -1.4580 O   0  0  0  0  0  0  0  0  0  0  0  0
    2.1353    0.9386   -2.1609 C   0  0  0  0  0  0  0  0  0  0  0  0
    3.0249    0.2290   -1.2180 C   0  0  0  0  0  0  0  0  0  0  0  0
    4.0586    0.8838   -0.5449 C   0  0  0  0  0  0  0  0  0  0  0  0
    4.9121    0.2433    0.3329 C   0  0  0  0  0  0  0  0  0  0  0  0
    5.9370    0.8982    0.9989 O   0  0  0  0  0  0  0  0  0  0  0  0
    6.0859    2.2814    0.7462 C   0  0  0  0  0  0  0  0  0  0  0  0
    4.7548   -1.1036    0.5706 C   0  0  0  0  0  0  0  0  0  0  0  0
    5.6162   -1.7303    1.4524 O   0  0  0  0  0  0  0  0  0  0  0  0
    6.8352   -2.3316    1.0711 C   0  0  0  0  0  0  0  0  0  0  0  0
    3.7346   -1.7881   -0.0834 C   0  0  0  0  0  0  0  0  0  0  0  0
    3.5973   -3.1432    0.1731 O   0  0  0  0  0  0  0  0  0  0  0  0
    2.5689   -3.8529   -0.4793 C   0  0  0  0  0  0  0  0  0  0  0  0
    2.9046   -1.1162   -0.9504 C   0  0  0  0  0  0  0  0  0  0  0  0
  1  2  1  0
  2  3  1  0
  3  4  1  0
  4  5  1  0
  5  6  1  0
  6  7  2  0
  7  8  1  0
  8  9  1  0
  9 10  1  0
 10 11  2  0
 11 12  1  0
 12 13  2  0
 13 14  1  0
 13 15  1  0
 15 16  2  0
 16 17  1  0
  8 18  2  0
 18 19  1  0
 19 20  2  0
 20 21  1  0
 21 22  1  0
 22 23  1  0
 23 24  2  0
 24 25  1  0
 25 26  1  0
 26 27  1  0
 25 28  2  0
 28 29  1  0
 29 30  1  0
 28 31  1  0
 31 32  1  0
 32 33  1  0
 31 34  2  0
 20  6  1  0
 34 23  1  0
 16 10  1  0
M  END
>  <zinc_id>  (524) 
ZINC000013472743

>  <ortholog_name>  (524) 
DRTS_PLAFK

>  <gene_name>  (524) 
DRTS_PLAFK

>  <affinity>  (524) 
8.25

>  <chembldocid>  (524) 
17636

>  <title>  (524) 
None

>  <reference.pubmed_id>  (524) 
14711307

>  <reference.doi>  (524) 
None

>  <reference.chembl_id>  (524) 
CHEMBL1148379

>  <reference.journal>  (524) 
J. Med. Chem.

>  <reference.year>  (524) 
2004

$$$$

     RDKit          3D

 34 36  0  0  0  0  0  0  0  0999 V2000
   -3.1158    5.2554   -1.6560 C   0  0  0  0  0  0  0  0  0  0  0  0
   -3.3191    3.7956   -1.2666 C   0  0  0  0  0  0  0  0  0  0  0  0
   -3.0106    3.6045    0.2098 C   0  0  0  0  0  0  0  0  0  0  0  0
   -1.5975    3.9813    0.5257 C   0  0  0  0  0  0  0  0  0  0  0  0
   -0.6408    3.2278   -0.1681 O   0  0  0  0  0  0  0  0  0  0  0  0
   -0.6403    1.8326    0.0304 C   0  0  0  0  0  0  0  0  0  0  0  0
   -1.5432    1.2322    0.8696 C   0  0  0  0  0  0  0  0  0  0  0  0
   -1.5712   -0.1160    1.0854 C   0  0  0  0  0  0  0  0  0  0  0  0
   -2.5158   -0.8349    1.9616 C   0  0  0  0  0  0  0  0  0  0  0  0
   -3.6267   -1.3916    1.1488 C   0  0  0  0  0  0  0  0  0  0  0  0
   -3.6678   -2.7475    0.8187 C   0  0  0  0  0  0  0  0  0  0  0  0
   -4.6600   -3.2478    0.0818 N   0  0  0  0  0  0  0  0  0  0  0  0
   -5.6656   -2.4734   -0.3783 C   0  0  0  0  0  0  0  0  0  0  0  0
   -6.7221   -3.0254   -1.1688 N   0  0  0  0  0  0  0  0  0  0  0  0
   -5.6309   -1.1603   -0.0616 N   0  0  0  0  0  0  0  0  0  0  0  0
   -4.6559   -0.6111    0.6759 C   0  0  0  0  0  0  0  0  0  0  0  0
   -4.6662    0.7800    0.9868 N   0  0  0  0  0  0  0  0  0  0  0  0
   -0.6308   -0.9103    0.4136 C   0  0  0  0  0  0  0  0  0  0  0  0
    0.2631   -0.3065   -0.4190 C   0  0  0  0  0  0  0  0  0  0  0  0
    0.2813    1.0424   -0.6263 C   0  0  0  0  0  0  0  0  0  0  0  0
    1.1702    1.6646   -1.4580 O   0  0  0  0  0  0  0  0  0  0  0  0
    2.1353    0.9386   -2.1609 C   0  0  0  0  0  0  0  0  0  0  0  0
    3.0249    0.2290   -1.2180 C   0  0  0  0  0  0  0  0  0  0  0  0
    4.0586    0.8838   -0.5449 C   0  0  0  0  0  0  0  0  0  0  0  0
    4.9121    0.2433    0.3329 C   0  0  0  0  0  0  0  0  0  0  0  0
    5.9370    0.8982    0.9989 O   0  0  0  0  0  0  0  0  0  0  0  0
    6.0859    2.2814    0.7462 C   0  0  0  0  0  0  0  0  0  0  0  0
    4.7548   -1.1036    0.5706 C   0  0  0  0  0  0  0  0  0  0  0  0
    5.6162   -1.7303    1.4524 O   0  0  0  0  0  0  0  0  0  0  0  0
    6.8352   -2.3316    1.0711 C   0  0  0  0  0  0  0  0  0  0  0  0
    3.7346   -1.7881   -0.0834 C   0  0  0  0  0  0  0  0  0  0  0  0
    3.5973   -3.1432    0.1731 O   0  0  0  0  0  0  0  0  0  0  0  0
    2.5689   -3.8529   -0.4793 C   0  0  0  0  0  0  0  0  0  0  0  0
    2.9046   -1.1162   -0.9504 C   0  0  0  0  0  0  0  0  0  0  0  0
  1  2  1  0
  2  3  1  0
  3  4  1  0
  4  5  1  0
  5  6  1  0
  6  7  2  0
  7  8  1  0
  8  9  1  0
  9 10  1  0
 10 11  2  0
 11 12  1  0
 12 13  2  0
 13 14  1  0
 13 15  1  0
 15 16  2  0
 16 17  1  0
  8 18  2  0
 18 19  1  0
 19 20  2  0
 20 21  1  0
 21 22  1  0
 22 23  1  0
 23 24  2  0
 24 25  1  0
 25 26  1  0
 26 27  1  0
 25 28  2  0
 28 29  1  0
 29 30  1  0
 28 31  1  0
 31 32  1  0
 32 33  1  0
 31 34  2  0
 20  6  1  0
 34 23  1  0
 16 10  1  0
M  END
>  <zinc_id>  (525) 
ZINC000013472743

>  <ortholog_name>  (525) 
DRTS_PLAFK

>  <gene_name>  (525) 
DRTS_PLAFK

>  <affinity>  (525) 
7.30

>  <chembldocid>  (525) 
17636

>  <title>  (525) 
None

>  <reference.pubmed_id>  (525) 
14711307

>  <reference.doi>  (525) 
None

>  <reference.chembl_id>  (525) 
CHEMBL1148379

>  <reference.journal>  (525) 
J. Med. Chem.

>  <reference.year>  (525) 
2004

$$$$

     RDKit          3D

 34 36  0  0  0  0  0  0  0  0999 V2000
   -3.1158    5.2554   -1.6560 C   0  0  0  0  0  0  0  0  0  0  0  0
   -3.3191    3.7956   -1.2666 C   0  0  0  0  0  0  0  0  0  0  0  0
   -3.0106    3.6045    0.2098 C   0  0  0  0  0  0  0  0  0  0  0  0
   -1.5975    3.9813    0.5257 C   0  0  0  0  0  0  0  0  0  0  0  0
   -0.6408    3.2278   -0.1681 O   0  0  0  0  0  0  0  0  0  0  0  0
   -0.6403    1.8326    0.0304 C   0  0  0  0  0  0  0  0  0  0  0  0
   -1.5432    1.2322    0.8696 C   0  0  0  0  0  0  0  0  0  0  0  0
   -1.5712   -0.1160    1.0854 C   0  0  0  0  0  0  0  0  0  0  0  0
   -2.5158   -0.8349    1.9616 C   0  0  0  0  0  0  0  0  0  0  0  0
   -3.6267   -1.3916    1.1488 C   0  0  0  0  0  0  0  0  0  0  0  0
   -3.6678   -2.7475    0.8187 C   0  0  0  0  0  0  0  0  0  0  0  0
   -4.6600   -3.2478    0.0818 N   0  0  0  0  0  0  0  0  0  0  0  0
   -5.6656   -2.4734   -0.3783 C   0  0  0  0  0  0  0  0  0  0  0  0
   -6.7221   -3.0254   -1.1688 N   0  0  0  0  0  0  0  0  0  0  0  0
   -5.6309   -1.1603   -0.0616 N   0  0  0  0  0  0  0  0  0  0  0  0
   -4.6559   -0.6111    0.6759 C   0  0  0  0  0  0  0  0  0  0  0  0
   -4.6662    0.7800    0.9868 N   0  0  0  0  0  0  0  0  0  0  0  0
   -0.6308   -0.9103    0.4136 C   0  0  0  0  0  0  0  0  0  0  0  0
    0.2631   -0.3065   -0.4190 C   0  0  0  0  0  0  0  0  0  0  0  0
    0.2813    1.0424   -0.6263 C   0  0  0  0  0  0  0  0  0  0  0  0
    1.1702    1.6646   -1.4580 O   0  0  0  0  0  0  0  0  0  0  0  0
    2.1353    0.9386   -2.1609 C   0  0  0  0  0  0  0  0  0  0  0  0
    3.0249    0.2290   -1.2180 C   0  0  0  0  0  0  0  0  0  0  0  0
    4.0586    0.8838   -0.5449 C   0  0  0  0  0  0  0  0  0  0  0  0
    4.9121    0.2433    0.3329 C   0  0  0  0  0  0  0  0  0  0  0  0
    5.9370    0.8982    0.9989 O   0  0  0  0  0  0  0  0  0  0  0  0
    6.0859    2.2814    0.7462 C   0  0  0  0  0  0  0  0  0  0  0  0
    4.7548   -1.1036    0.5706 C   0  0  0  0  0  0  0  0  0  0  0  0
    5.6162   -1.7303    1.4524 O   0  0  0  0  0  0  0  0  0  0  0  0
    6.8352   -2.3316    1.0711 C   0  0  0  0  0  0  0  0  0  0  0  0
    3.7346   -1.7881   -0.0834 C   0  0  0  0  0  0  0  0  0  0  0  0
    3.5973   -3.1432    0.1731 O   0  0  0  0  0  0  0  0  0  0  0  0
    2.5689   -3.8529   -0.4793 C   0  0  0  0  0  0  0  0  0  0  0  0
    2.9046   -1.1162   -0.9504 C   0  0  0  0  0  0  0  0  0  0  0  0
  1  2  1  0
  2  3  1  0
  3  4  1  0
  4  5  1  0
  5  6  1  0
  6  7  2  0
  7  8  1  0
  8  9  1  0
  9 10  1  0
 10 11  2  0
 11 12  1  0
 12 13  2  0
 13 14  1  0
 13 15  1  0
 15 16  2  0
 16 17  1  0
  8 18  2  0
 18 19  1  0
 19 20  2  0
 20 21  1  0
 21 22  1  0
 22 23  1  0
 23 24  2  0
 24 25  1  0
 25 26  1  0
 26 27  1  0
 25 28  2  0
 28 29  1  0
 29 30  1  0
 28 31  1  0
 31 32  1  0
 32 33  1  0
 31 34  2  0
 20  6  1  0
 34 23  1  0
 16 10  1  0
M  END
>  <zinc_id>  (526) 
ZINC000013472743

>  <ortholog_name>  (526) 
DRTS_PLAFK

>  <gene_name>  (526) 
DRTS_PLAFK

>  <affinity>  (526) 
7.15

>  <chembldocid>  (526) 
17636

>  <title>  (526) 
None

>  <reference.pubmed_id>  (526) 
14711307

>  <reference.doi>  (526) 
None

>  <reference.chembl_id>  (526) 
CHEMBL1148379

>  <reference.journal>  (526) 
J. Med. Chem.

>  <reference.year>  (526) 
2004

$$$$

     RDKit          3D

 29 31  0  0  0  0  0  0  0  0999 V2000
   -6.1051    3.5389    2.6224 N   0  0  0  0  0  0  0  0  0  0  0  0
   -5.7290    2.7689    1.4755 C   0  0  0  0  0  0  0  0  0  0  0  0
   -5.3418    3.3298    0.3179 N   0  0  0  0  0  0  0  0  0  0  0  0
   -4.9952    2.5421   -0.7404 C   0  0  0  0  0  0  0  0  0  0  0  0
   -5.0369    1.1670   -0.6383 C   0  0  0  0  0  0  0  0  0  0  0  0
   -4.6739    0.2485   -1.7477 C   0  0  0  0  0  0  0  0  0  0  0  0
   -3.3131   -0.3477   -1.5034 C   0  0  0  0  0  0  0  0  0  0  0  0
   -3.1812   -1.5241   -0.7996 C   0  0  0  0  0  0  0  0  0  0  0  0
   -1.9278   -2.1009   -0.5580 C   0  0  0  0  0  0  0  0  0  0  0  0
   -0.8121   -1.4709   -1.0381 C   0  0  0  0  0  0  0  0  0  0  0  0
    0.4310   -2.0126   -0.8170 O   0  0  0  0  0  0  0  0  0  0  0  0
    1.6280   -1.4264   -1.2786 C   0  0  0  0  0  0  0  0  0  0  0  0
    1.7659   -0.0554   -0.6826 C   0  0  0  0  0  0  0  0  0  0  0  0
    1.8048   -0.1369    0.8491 C   0  0  0  0  0  0  0  0  0  0  0  0
    2.9108   -0.9278    1.2523 O   0  0  0  0  0  0  0  0  0  0  0  0
    4.2120   -0.5324    0.8928 C   0  0  0  0  0  0  0  0  0  0  0  0
    4.4255    0.6175    0.1515 C   0  0  0  0  0  0  0  0  0  0  0  0
    5.7257    0.9890   -0.1930 C   0  0  0  0  0  0  0  0  0  0  0  0
    5.9745    2.4559   -1.1369 Cl  0  0  0  0  0  0  0  0  0  0  0  0
    6.7839    0.2013    0.2124 C   0  0  0  0  0  0  0  0  0  0  0  0
    8.4171    0.6600   -0.2149 Cl  0  0  0  0  0  0  0  0  0  0  0  0
    6.6022   -0.9483    0.9509 C   0  0  0  0  0  0  0  0  0  0  0  0
    5.2993   -1.2884    1.2757 C   0  0  0  0  0  0  0  0  0  0  0  0
    4.9663   -2.7430    2.2184 Cl  0  0  0  0  0  0  0  0  0  0  0  0
   -0.9429   -0.3035   -1.7364 C   0  0  0  0  0  0  0  0  0  0  0  0
   -2.1862    0.2703   -1.9771 C   0  0  0  0  0  0  0  0  0  0  0  0
   -5.4382    0.6223    0.5619 C   0  0  0  0  0  0  0  0  0  0  0  0
   -5.4862   -0.7933    0.6823 N   0  0  0  0  0  0  0  0  0  0  0  0
   -5.7775    1.4312    1.5988 N   0  0  0  0  0  0  0  0  0  0  0  0
  1  2  1  0
  2  3  2  0
  3  4  1  0
  4  5  2  0
  5  6  1  0
  6  7  1  0
  7  8  2  0
  8  9  1  0
  9 10  2  0
 10 11  1  0
 11 12  1  0
 12 13  1  0
 13 14  1  0
 14 15  1  0
 15 16  1  0
 16 17  2  0
 17 18  1  0
 18 19  1  0
 18 20  2  0
 20 21  1  0
 20 22  1  0
 22 23  2  0
 23 24  1  0
 10 25  1  0
 25 26  2  0
  5 27  1  0
 27 28  1  0
 27 29  2  0
 29  2  1  0
 26  7  1  0
 23 16  1  0
M  END
>  <zinc_id>  (527) 
ZINC000013472744

>  <ortholog_name>  (527) 
DRTS_PLAFK

>  <gene_name>  (527) 
DRTS_PLAFK

>  <affinity>  (527) 
9.05

>  <chembldocid>  (527) 
16871

>  <title>  (527) 
None

>  <reference.pubmed_id>  (527) 
11881993

>  <reference.doi>  (527) 
None

>  <reference.chembl_id>  (527) 
CHEMBL1135602

>  <reference.journal>  (527) 
J. Med. Chem.

>  <reference.year>  (527) 
2002

$$$$

     RDKit          3D

 29 31  0  0  0  0  0  0  0  0999 V2000
   -6.1051    3.5389    2.6224 N   0  0  0  0  0  0  0  0  0  0  0  0
   -5.7290    2.7689    1.4755 C   0  0  0  0  0  0  0  0  0  0  0  0
   -5.3418    3.3298    0.3179 N   0  0  0  0  0  0  0  0  0  0  0  0
   -4.9952    2.5421   -0.7404 C   0  0  0  0  0  0  0  0  0  0  0  0
   -5.0369    1.1670   -0.6383 C   0  0  0  0  0  0  0  0  0  0  0  0
   -4.6739    0.2485   -1.7477 C   0  0  0  0  0  0  0  0  0  0  0  0
   -3.3131   -0.3477   -1.5034 C   0  0  0  0  0  0  0  0  0  0  0  0
   -3.1812   -1.5241   -0.7996 C   0  0  0  0  0  0  0  0  0  0  0  0
   -1.9278   -2.1009   -0.5580 C   0  0  0  0  0  0  0  0  0  0  0  0
   -0.8121   -1.4709   -1.0381 C   0  0  0  0  0  0  0  0  0  0  0  0
    0.4310   -2.0126   -0.8170 O   0  0  0  0  0  0  0  0  0  0  0  0
    1.6280   -1.4264   -1.2786 C   0  0  0  0  0  0  0  0  0  0  0  0
    1.7659   -0.0554   -0.6826 C   0  0  0  0  0  0  0  0  0  0  0  0
    1.8048   -0.1369    0.8491 C   0  0  0  0  0  0  0  0  0  0  0  0
    2.9108   -0.9278    1.2523 O   0  0  0  0  0  0  0  0  0  0  0  0
    4.2120   -0.5324    0.8928 C   0  0  0  0  0  0  0  0  0  0  0  0
    4.4255    0.6175    0.1515 C   0  0  0  0  0  0  0  0  0  0  0  0
    5.7257    0.9890   -0.1930 C   0  0  0  0  0  0  0  0  0  0  0  0
    5.9745    2.4559   -1.1369 Cl  0  0  0  0  0  0  0  0  0  0  0  0
    6.7839    0.2013    0.2124 C   0  0  0  0  0  0  0  0  0  0  0  0
    8.4171    0.6600   -0.2149 Cl  0  0  0  0  0  0  0  0  0  0  0  0
    6.6022   -0.9483    0.9509 C   0  0  0  0  0  0  0  0  0  0  0  0
    5.2993   -1.2884    1.2757 C   0  0  0  0  0  0  0  0  0  0  0  0
    4.9663   -2.7430    2.2184 Cl  0  0  0  0  0  0  0  0  0  0  0  0
   -0.9429   -0.3035   -1.7364 C   0  0  0  0  0  0  0  0  0  0  0  0
   -2.1862    0.2703   -1.9771 C   0  0  0  0  0  0  0  0  0  0  0  0
   -5.4382    0.6223    0.5619 C   0  0  0  0  0  0  0  0  0  0  0  0
   -5.4862   -0.7933    0.6823 N   0  0  0  0  0  0  0  0  0  0  0  0
   -5.7775    1.4312    1.5988 N   0  0  0  0  0  0  0  0  0  0  0  0
  1  2  1  0
  2  3  2  0
  3  4  1  0
  4  5  2  0
  5  6  1  0
  6  7  1  0
  7  8  2  0
  8  9  1  0
  9 10  2  0
 10 11  1  0
 11 12  1  0
 12 13  1  0
 13 14  1  0
 14 15  1  0
 15 16  1  0
 16 17  2  0
 17 18  1  0
 18 19  1  0
 18 20  2  0
 20 21  1  0
 20 22  1  0
 22 23  2  0
 23 24  1  0
 10 25  1  0
 25 26  2  0
  5 27  1  0
 27 28  1  0
 27 29  2  0
 29  2  1  0
 26  7  1  0
 23 16  1  0
M  END
>  <zinc_id>  (528) 
ZINC000013472744

>  <ortholog_name>  (528) 
DRTS_PLAFK

>  <gene_name>  (528) 
DRTS_PLAFK

>  <affinity>  (528) 
7.63

>  <chembldocid>  (528) 
16871

>  <title>  (528) 
None

>  <reference.pubmed_id>  (528) 
11881993

>  <reference.doi>  (528) 
None

>  <reference.chembl_id>  (528) 
CHEMBL1135602

>  <reference.journal>  (528) 
J. Med. Chem.

>  <reference.year>  (528) 
2002

$$$$

     RDKit          3D

 29 31  0  0  0  0  0  0  0  0999 V2000
   -6.1051    3.5389    2.6224 N   0  0  0  0  0  0  0  0  0  0  0  0
   -5.7290    2.7689    1.4755 C   0  0  0  0  0  0  0  0  0  0  0  0
   -5.3418    3.3298    0.3179 N   0  0  0  0  0  0  0  0  0  0  0  0
   -4.9952    2.5421   -0.7404 C   0  0  0  0  0  0  0  0  0  0  0  0
   -5.0369    1.1670   -0.6383 C   0  0  0  0  0  0  0  0  0  0  0  0
   -4.6739    0.2485   -1.7477 C   0  0  0  0  0  0  0  0  0  0  0  0
   -3.3131   -0.3477   -1.5034 C   0  0  0  0  0  0  0  0  0  0  0  0
   -3.1812   -1.5241   -0.7996 C   0  0  0  0  0  0  0  0  0  0  0  0
   -1.9278   -2.1009   -0.5580 C   0  0  0  0  0  0  0  0  0  0  0  0
   -0.8121   -1.4709   -1.0381 C   0  0  0  0  0  0  0  0  0  0  0  0
    0.4310   -2.0126   -0.8170 O   0  0  0  0  0  0  0  0  0  0  0  0
    1.6280   -1.4264   -1.2786 C   0  0  0  0  0  0  0  0  0  0  0  0
    1.7659   -0.0554   -0.6826 C   0  0  0  0  0  0  0  0  0  0  0  0
    1.8048   -0.1369    0.8491 C   0  0  0  0  0  0  0  0  0  0  0  0
    2.9108   -0.9278    1.2523 O   0  0  0  0  0  0  0  0  0  0  0  0
    4.2120   -0.5324    0.8928 C   0  0  0  0  0  0  0  0  0  0  0  0
    4.4255    0.6175    0.1515 C   0  0  0  0  0  0  0  0  0  0  0  0
    5.7257    0.9890   -0.1930 C   0  0  0  0  0  0  0  0  0  0  0  0
    5.9745    2.4559   -1.1369 Cl  0  0  0  0  0  0  0  0  0  0  0  0
    6.7839    0.2013    0.2124 C   0  0  0  0  0  0  0  0  0  0  0  0
    8.4171    0.6600   -0.2149 Cl  0  0  0  0  0  0  0  0  0  0  0  0
    6.6022   -0.9483    0.9509 C   0  0  0  0  0  0  0  0  0  0  0  0
    5.2993   -1.2884    1.2757 C   0  0  0  0  0  0  0  0  0  0  0  0
    4.9663   -2.7430    2.2184 Cl  0  0  0  0  0  0  0  0  0  0  0  0
   -0.9429   -0.3035   -1.7364 C   0  0  0  0  0  0  0  0  0  0  0  0
   -2.1862    0.2703   -1.9771 C   0  0  0  0  0  0  0  0  0  0  0  0
   -5.4382    0.6223    0.5619 C   0  0  0  0  0  0  0  0  0  0  0  0
   -5.4862   -0.7933    0.6823 N   0  0  0  0  0  0  0  0  0  0  0  0
   -5.7775    1.4312    1.5988 N   0  0  0  0  0  0  0  0  0  0  0  0
  1  2  1  0
  2  3  2  0
  3  4  1  0
  4  5  2  0
  5  6  1  0
  6  7  1  0
  7  8  2  0
  8  9  1  0
  9 10  2  0
 10 11  1  0
 11 12  1  0
 12 13  1  0
 13 14  1  0
 14 15  1  0
 15 16  1  0
 16 17  2  0
 17 18  1  0
 18 19  1  0
 18 20  2  0
 20 21  1  0
 20 22  1  0
 22 23  2  0
 23 24  1  0
 10 25  1  0
 25 26  2  0
  5 27  1  0
 27 28  1  0
 27 29  2  0
 29  2  1  0
 26  7  1  0
 23 16  1  0
M  END
>  <zinc_id>  (529) 
ZINC000013472744

>  <ortholog_name>  (529) 
DRTS_PLAFK

>  <gene_name>  (529) 
DRTS_PLAFK

>  <affinity>  (529) 
5.46

>  <chembldocid>  (529) 
16871

>  <title>  (529) 
None

>  <reference.pubmed_id>  (529) 
11881993

>  <reference.doi>  (529) 
None

>  <reference.chembl_id>  (529) 
CHEMBL1135602

>  <reference.journal>  (529) 
J. Med. Chem.

>  <reference.year>  (529) 
2002

$$$$

     RDKit          3D

 29 31  0  0  0  0  0  0  0  0999 V2000
   -6.1051    3.5389    2.6224 N   0  0  0  0  0  0  0  0  0  0  0  0
   -5.7290    2.7689    1.4755 C   0  0  0  0  0  0  0  0  0  0  0  0
   -5.3418    3.3298    0.3179 N   0  0  0  0  0  0  0  0  0  0  0  0
   -4.9952    2.5421   -0.7404 C   0  0  0  0  0  0  0  0  0  0  0  0
   -5.0369    1.1670   -0.6383 C   0  0  0  0  0  0  0  0  0  0  0  0
   -4.6739    0.2485   -1.7477 C   0  0  0  0  0  0  0  0  0  0  0  0
   -3.3131   -0.3477   -1.5034 C   0  0  0  0  0  0  0  0  0  0  0  0
   -3.1812   -1.5241   -0.7996 C   0  0  0  0  0  0  0  0  0  0  0  0
   -1.9278   -2.1009   -0.5580 C   0  0  0  0  0  0  0  0  0  0  0  0
   -0.8121   -1.4709   -1.0381 C   0  0  0  0  0  0  0  0  0  0  0  0
    0.4310   -2.0126   -0.8170 O   0  0  0  0  0  0  0  0  0  0  0  0
    1.6280   -1.4264   -1.2786 C   0  0  0  0  0  0  0  0  0  0  0  0
    1.7659   -0.0554   -0.6826 C   0  0  0  0  0  0  0  0  0  0  0  0
    1.8048   -0.1369    0.8491 C   0  0  0  0  0  0  0  0  0  0  0  0
    2.9108   -0.9278    1.2523 O   0  0  0  0  0  0  0  0  0  0  0  0
    4.2120   -0.5324    0.8928 C   0  0  0  0  0  0  0  0  0  0  0  0
    4.4255    0.6175    0.1515 C   0  0  0  0  0  0  0  0  0  0  0  0
    5.7257    0.9890   -0.1930 C   0  0  0  0  0  0  0  0  0  0  0  0
    5.9745    2.4559   -1.1369 Cl  0  0  0  0  0  0  0  0  0  0  0  0
    6.7839    0.2013    0.2124 C   0  0  0  0  0  0  0  0  0  0  0  0
    8.4171    0.6600   -0.2149 Cl  0  0  0  0  0  0  0  0  0  0  0  0
    6.6022   -0.9483    0.9509 C   0  0  0  0  0  0  0  0  0  0  0  0
    5.2993   -1.2884    1.2757 C   0  0  0  0  0  0  0  0  0  0  0  0
    4.9663   -2.7430    2.2184 Cl  0  0  0  0  0  0  0  0  0  0  0  0
   -0.9429   -0.3035   -1.7364 C   0  0  0  0  0  0  0  0  0  0  0  0
   -2.1862    0.2703   -1.9771 C   0  0  0  0  0  0  0  0  0  0  0  0
   -5.4382    0.6223    0.5619 C   0  0  0  0  0  0  0  0  0  0  0  0
   -5.4862   -0.7933    0.6823 N   0  0  0  0  0  0  0  0  0  0  0  0
   -5.7775    1.4312    1.5988 N   0  0  0  0  0  0  0  0  0  0  0  0
  1  2  1  0
  2  3  2  0
  3  4  1  0
  4  5  2  0
  5  6  1  0
  6  7  1  0
  7  8  2  0
  8  9  1  0
  9 10  2  0
 10 11  1  0
 11 12  1  0
 12 13  1  0
 13 14  1  0
 14 15  1  0
 15 16  1  0
 16 17  2  0
 17 18  1  0
 18 19  1  0
 18 20  2  0
 20 21  1  0
 20 22  1  0
 22 23  2  0
 23 24  1  0
 10 25  1  0
 25 26  2  0
  5 27  1  0
 27 28  1  0
 27 29  2  0
 29  2  1  0
 26  7  1  0
 23 16  1  0
M  END
>  <zinc_id>  (530) 
ZINC000013472744

>  <ortholog_name>  (530) 
DRTS_PLAFK

>  <gene_name>  (530) 
DRTS_PLAFK

>  <affinity>  (530) 
7.41

>  <chembldocid>  (530) 
16871

>  <title>  (530) 
None

>  <reference.pubmed_id>  (530) 
11881993

>  <reference.doi>  (530) 
None

>  <reference.chembl_id>  (530) 
CHEMBL1135602

>  <reference.journal>  (530) 
J. Med. Chem.

>  <reference.year>  (530) 
2002

$$$$

     RDKit          3D

 16 17  0  0  0  0  0  0  0  0999 V2000
   -0.8848    0.8474    2.0141 C   0  0  0  0  0  0  0  0  0  0  0  0
   -1.1502    1.4016    0.4360 C   0  0  2  0  0  0  0  0  0  0  0  0
   -2.6366    1.2539    0.4702 N   0  0  0  0  0  0  0  0  0  0  0  0
   -3.3394    0.3229    0.0641 C   0  0  0  0  0  0  0  0  0  0  0  0
   -4.7902    0.3487    0.1808 N   0  0  0  0  0  0  0  0  0  0  0  0
   -2.7523   -0.8201   -0.5383 N   0  0  0  0  0  0  0  0  0  0  0  0
   -1.4881   -0.8973   -0.6667 C   0  0  0  0  0  0  0  0  0  0  0  0
   -0.8834   -2.0468   -1.2737 N   0  0  0  0  0  0  0  0  0  0  0  0
   -0.6482    0.1191   -0.2287 N   0  0  0  0  0  0  0  0  0  0  0  0
    0.7826    0.0411   -0.3695 C   0  0  0  0  0  0  0  0  0  0  0  0
    1.5461   -0.5203    0.6318 C   0  0  0  0  0  0  0  0  0  0  0  0
    2.9171   -0.6007    0.5086 C   0  0  0  0  0  0  0  0  0  0  0  0
    3.5867   -0.1298   -0.6077 C   0  0  0  0  0  0  0  0  0  0  0  0
    5.4858   -0.2617   -0.7358 Br  0  0  0  0  0  0  0  0  0  0  0  0
    2.8138    0.4305   -1.6049 C   0  0  0  0  0  0  0  0  0  0  0  0
    1.4411    0.5114   -1.4825 C   0  0  0  0  0  0  0  0  0  0  0  0
  2  1  1  1
  2  3  1  0
  3  4  2  0
  4  5  1  0
  4  6  1  0
  6  7  2  0
  7  8  1  0
  7  9  1  0
  9 10  1  0
 10 11  2  0
 11 12  1  0
 12 13  2  0
 13 14  1  0
 13 15  1  0
 15 16  2  0
  9  2  1  0
 16 10  1  0
M  END
>  <zinc_id>  (531) 
ZINC000013476267

>  <ortholog_name>  (531) 
DRTS_PLAFK

>  <gene_name>  (531) 
DRTS_PLAFK

>  <affinity>  (531) 
6.69

>  <chembldocid>  (531) 
15522

>  <title>  (531) 
None

>  <reference.pubmed_id>  (531) 
10893311

>  <reference.doi>  (531) 
None

>  <reference.chembl_id>  (531) 
CHEMBL1133696

>  <reference.journal>  (531) 
J. Med. Chem.

>  <reference.year>  (531) 
2000

$$$$

     RDKit          3D

 16 17  0  0  0  0  0  0  0  0999 V2000
   -0.8848    0.8474    2.0141 C   0  0  0  0  0  0  0  0  0  0  0  0
   -1.1502    1.4016    0.4360 C   0  0  2  0  0  0  0  0  0  0  0  0
   -2.6366    1.2539    0.4702 N   0  0  0  0  0  0  0  0  0  0  0  0
   -3.3394    0.3229    0.0641 C   0  0  0  0  0  0  0  0  0  0  0  0
   -4.7902    0.3487    0.1808 N   0  0  0  0  0  0  0  0  0  0  0  0
   -2.7523   -0.8201   -0.5383 N   0  0  0  0  0  0  0  0  0  0  0  0
   -1.4881   -0.8973   -0.6667 C   0  0  0  0  0  0  0  0  0  0  0  0
   -0.8834   -2.0468   -1.2737 N   0  0  0  0  0  0  0  0  0  0  0  0
   -0.6482    0.1191   -0.2287 N   0  0  0  0  0  0  0  0  0  0  0  0
    0.7826    0.0411   -0.3695 C   0  0  0  0  0  0  0  0  0  0  0  0
    1.5461   -0.5203    0.6318 C   0  0  0  0  0  0  0  0  0  0  0  0
    2.9171   -0.6007    0.5086 C   0  0  0  0  0  0  0  0  0  0  0  0
    3.5867   -0.1298   -0.6077 C   0  0  0  0  0  0  0  0  0  0  0  0
    5.4858   -0.2617   -0.7358 Br  0  0  0  0  0  0  0  0  0  0  0  0
    2.8138    0.4305   -1.6049 C   0  0  0  0  0  0  0  0  0  0  0  0
    1.4411    0.5114   -1.4825 C   0  0  0  0  0  0  0  0  0  0  0  0
  2  1  1  1
  2  3  1  0
  3  4  2  0
  4  5  1  0
  4  6  1  0
  6  7  2  0
  7  8  1  0
  7  9  1  0
  9 10  1  0
 10 11  2  0
 11 12  1  0
 12 13  2  0
 13 14  1  0
 13 15  1  0
 15 16  2  0
  9  2  1  0
 16 10  1  0
M  END
>  <zinc_id>  (532) 
ZINC000013476267

>  <ortholog_name>  (532) 
DRTS_PLAFK

>  <gene_name>  (532) 
DRTS_PLAFK

>  <affinity>  (532) 
8.24

>  <chembldocid>  (532) 
15522

>  <title>  (532) 
None

>  <reference.pubmed_id>  (532) 
10893311

>  <reference.doi>  (532) 
None

>  <reference.chembl_id>  (532) 
CHEMBL1133696

>  <reference.journal>  (532) 
J. Med. Chem.

>  <reference.year>  (532) 
2000

$$$$

     RDKit          3D

 16 17  0  0  0  0  0  0  0  0999 V2000
   -1.3900   -1.5704   -1.5330 C   0  0  0  0  0  0  0  0  0  0  0  0
   -1.1260    0.1052   -1.5994 C   0  0  1  0  0  0  0  0  0  0  0  0
   -2.5976    0.5176   -1.4504 N   0  0  0  0  0  0  0  0  0  0  0  0
   -3.2065    0.8621   -0.4587 C   0  0  0  0  0  0  0  0  0  0  0  0
   -4.6092    1.1896   -0.6677 N   0  0  0  0  0  0  0  0  0  0  0  0
   -2.6323    0.9535    0.8327 N   0  0  0  0  0  0  0  0  0  0  0  0
   -1.3897    0.6442    0.9155 C   0  0  0  0  0  0  0  0  0  0  0  0
   -0.6992    0.7033    2.1972 N   0  0  0  0  0  0  0  0  0  0  0  0
   -0.6194    0.2463   -0.1359 N   0  0  0  0  0  0  0  0  0  0  0  0
    0.7815   -0.0907    0.0201 C   0  0  0  0  0  0  0  0  0  0  0  0
    1.5846   -0.4950   -1.0195 C   0  0  0  0  0  0  0  0  0  0  0  0
    2.9196   -0.8106   -0.8416 C   0  0  0  0  0  0  0  0  0  0  0  0
    3.5151   -0.7349    0.3958 C   0  0  0  0  0  0  0  0  0  0  0  0
    5.3671   -1.1714    0.6500 Br  0  0  0  0  0  0  0  0  0  0  0  0
    2.7185   -0.3310    1.4427 C   0  0  0  0  0  0  0  0  0  0  0  0
    1.3834   -0.0177    1.2520 C   0  0  0  0  0  0  0  0  0  0  0  0
  2  1  1  1
  2  3  1  0
  3  4  2  0
  4  5  1  0
  4  6  1  0
  6  7  2  0
  7  8  1  0
  7  9  1  0
  9 10  1  0
 10 11  2  0
 11 12  1  0
 12 13  2  0
 13 14  1  0
 13 15  1  0
 15 16  2  0
  9  2  1  0
 16 10  1  0
M  END
>  <zinc_id>  (533) 
ZINC000013476268

>  <ortholog_name>  (533) 
DRTS_PLAFK

>  <gene_name>  (533) 
DRTS_PLAFK

>  <affinity>  (533) 
6.69

>  <chembldocid>  (533) 
15522

>  <title>  (533) 
None

>  <reference.pubmed_id>  (533) 
10893311

>  <reference.doi>  (533) 
None

>  <reference.chembl_id>  (533) 
CHEMBL1133696

>  <reference.journal>  (533) 
J. Med. Chem.

>  <reference.year>  (533) 
2000

$$$$

     RDKit          3D

 16 17  0  0  0  0  0  0  0  0999 V2000
   -1.3900   -1.5704   -1.5330 C   0  0  0  0  0  0  0  0  0  0  0  0
   -1.1260    0.1052   -1.5994 C   0  0  1  0  0  0  0  0  0  0  0  0
   -2.5976    0.5176   -1.4504 N   0  0  0  0  0  0  0  0  0  0  0  0
   -3.2065    0.8621   -0.4587 C   0  0  0  0  0  0  0  0  0  0  0  0
   -4.6092    1.1896   -0.6677 N   0  0  0  0  0  0  0  0  0  0  0  0
   -2.6323    0.9535    0.8327 N   0  0  0  0  0  0  0  0  0  0  0  0
   -1.3897    0.6442    0.9155 C   0  0  0  0  0  0  0  0  0  0  0  0
   -0.6992    0.7033    2.1972 N   0  0  0  0  0  0  0  0  0  0  0  0
   -0.6194    0.2463   -0.1359 N   0  0  0  0  0  0  0  0  0  0  0  0
    0.7815   -0.0907    0.0201 C   0  0  0  0  0  0  0  0  0  0  0  0
    1.5846   -0.4950   -1.0195 C   0  0  0  0  0  0  0  0  0  0  0  0
    2.9196   -0.8106   -0.8416 C   0  0  0  0  0  0  0  0  0  0  0  0
    3.5151   -0.7349    0.3958 C   0  0  0  0  0  0  0  0  0  0  0  0
    5.3671   -1.1714    0.6500 Br  0  0  0  0  0  0  0  0  0  0  0  0
    2.7185   -0.3310    1.4427 C   0  0  0  0  0  0  0  0  0  0  0  0
    1.3834   -0.0177    1.2520 C   0  0  0  0  0  0  0  0  0  0  0  0
  2  1  1  1
  2  3  1  0
  3  4  2  0
  4  5  1  0
  4  6  1  0
  6  7  2  0
  7  8  1  0
  7  9  1  0
  9 10  1  0
 10 11  2  0
 11 12  1  0
 12 13  2  0
 13 14  1  0
 13 15  1  0
 15 16  2  0
  9  2  1  0
 16 10  1  0
M  END
>  <zinc_id>  (534) 
ZINC000013476268

>  <ortholog_name>  (534) 
DRTS_PLAFK

>  <gene_name>  (534) 
DRTS_PLAFK

>  <affinity>  (534) 
8.24

>  <chembldocid>  (534) 
15522

>  <title>  (534) 
None

>  <reference.pubmed_id>  (534) 
10893311

>  <reference.doi>  (534) 
None

>  <reference.chembl_id>  (534) 
CHEMBL1133696

>  <reference.journal>  (534) 
J. Med. Chem.

>  <reference.year>  (534) 
2000

$$$$

     RDKit          3D

 16 17  0  0  0  0  0  0  0  0999 V2000
    4.8880   -0.1779    1.5591 C   0  0  0  0  0  0  0  0  0  0  0  0
    3.4604   -0.1101    1.1119 C   0  0  0  0  0  0  0  0  0  0  0  0
    2.4480   -0.7764    1.7679 C   0  0  0  0  0  0  0  0  0  0  0  0
    1.1370   -0.6978    1.3349 C   0  0  0  0  0  0  0  0  0  0  0  0
    0.7600    0.0355    0.2424 C   0  0  0  0  0  0  0  0  0  0  0  0
   -0.5937    0.1372   -0.2326 N   0  0  0  0  0  0  0  0  0  0  0  0
   -1.0460   -0.7633   -1.1476 C   0  0  0  0  0  0  0  0  0  0  0  0
   -0.1232   -1.7934   -1.6014 N   0  0  0  0  0  0  0  0  0  0  0  0
   -2.2435   -0.7099   -1.5974 N   0  0  0  0  0  0  0  0  0  0  0  0
   -3.1238    0.2975   -1.1445 C   0  0  0  0  0  0  0  0  0  0  0  0
   -4.4736    0.3049   -1.6943 N   0  0  0  0  0  0  0  0  0  0  0  0
   -2.7664    1.1255   -0.3272 N   0  0  0  0  0  0  0  0  0  0  0  0
   -1.4223    1.2944    0.3628 C   0  0  1  0  0  0  0  0  0  0  0  0
   -1.7628    0.5044    1.7644 C   0  0  0  0  0  0  0  0  0  0  0  0
    1.7746    0.6984   -0.4084 C   0  0  0  0  0  0  0  0  0  0  0  0
    3.0874    0.6309    0.0099 C   0  0  0  0  0  0  0  0  0  0  0  0
  1  2  1  0
  2  3  2  0
  3  4  1  0
  4  5  2  0
  5  6  1  0
  6  7  1  0
  7  8  1  0
  7  9  2  0
  9 10  1  0
 10 11  1  0
 10 12  2  0
 12 13  1  0
 13 14  1  1
  5 15  1  0
 15 16  2  0
 16  2  1  0
 13  6  1  0
M  END
>  <zinc_id>  (535) 
ZINC000013476270

>  <ortholog_name>  (535) 
DRTS_PLAFK

>  <gene_name>  (535) 
DRTS_PLAFK

>  <affinity>  (535) 
6.73

>  <chembldocid>  (535) 
15522

>  <title>  (535) 
None

>  <reference.pubmed_id>  (535) 
10893311

>  <reference.doi>  (535) 
None

>  <reference.chembl_id>  (535) 
CHEMBL1133696

>  <reference.journal>  (535) 
J. Med. Chem.

>  <reference.year>  (535) 
2000

$$$$

     RDKit          3D

 16 17  0  0  0  0  0  0  0  0999 V2000
    4.8880   -0.1779    1.5591 C   0  0  0  0  0  0  0  0  0  0  0  0
    3.4604   -0.1101    1.1119 C   0  0  0  0  0  0  0  0  0  0  0  0
    2.4480   -0.7764    1.7679 C   0  0  0  0  0  0  0  0  0  0  0  0
    1.1370   -0.6978    1.3349 C   0  0  0  0  0  0  0  0  0  0  0  0
    0.7600    0.0355    0.2424 C   0  0  0  0  0  0  0  0  0  0  0  0
   -0.5937    0.1372   -0.2326 N   0  0  0  0  0  0  0  0  0  0  0  0
   -1.0460   -0.7633   -1.1476 C   0  0  0  0  0  0  0  0  0  0  0  0
   -0.1232   -1.7934   -1.6014 N   0  0  0  0  0  0  0  0  0  0  0  0
   -2.2435   -0.7099   -1.5974 N   0  0  0  0  0  0  0  0  0  0  0  0
   -3.1238    0.2975   -1.1445 C   0  0  0  0  0  0  0  0  0  0  0  0
   -4.4736    0.3049   -1.6943 N   0  0  0  0  0  0  0  0  0  0  0  0
   -2.7664    1.1255   -0.3272 N   0  0  0  0  0  0  0  0  0  0  0  0
   -1.4223    1.2944    0.3628 C   0  0  1  0  0  0  0  0  0  0  0  0
   -1.7628    0.5044    1.7644 C   0  0  0  0  0  0  0  0  0  0  0  0
    1.7746    0.6984   -0.4084 C   0  0  0  0  0  0  0  0  0  0  0  0
    3.0874    0.6309    0.0099 C   0  0  0  0  0  0  0  0  0  0  0  0
  1  2  1  0
  2  3  2  0
  3  4  1  0
  4  5  2  0
  5  6  1  0
  6  7  1  0
  7  8  1  0
  7  9  2  0
  9 10  1  0
 10 11  1  0
 10 12  2  0
 12 13  1  0
 13 14  1  1
  5 15  1  0
 15 16  2  0
 16  2  1  0
 13  6  1  0
M  END
>  <zinc_id>  (536) 
ZINC000013476270

>  <ortholog_name>  (536) 
DRTS_PLAFK

>  <gene_name>  (536) 
DRTS_PLAFK

>  <affinity>  (536) 
7.64

>  <chembldocid>  (536) 
15522

>  <title>  (536) 
None

>  <reference.pubmed_id>  (536) 
10893311

>  <reference.doi>  (536) 
None

>  <reference.chembl_id>  (536) 
CHEMBL1133696

>  <reference.journal>  (536) 
J. Med. Chem.

>  <reference.year>  (536) 
2000

$$$$

     RDKit          3D

 16 17  0  0  0  0  0  0  0  0999 V2000
   -5.1408   -0.1399    0.3365 C   0  0  0  0  0  0  0  0  0  0  0  0
   -3.6399   -0.0657    0.1915 C   0  0  0  0  0  0  0  0  0  0  0  0
   -2.8085   -0.7178    1.0642 C   0  0  0  0  0  0  0  0  0  0  0  0
   -1.4508   -0.6482    0.9297 C   0  0  0  0  0  0  0  0  0  0  0  0
   -0.7936    0.0569   -0.0584 C   0  0  0  0  0  0  0  0  0  0  0  0
    0.5929    0.0897   -0.1427 N   0  0  0  0  0  0  0  0  0  0  0  0
    1.3475   -0.7829   -0.8378 C   0  0  0  0  0  0  0  0  0  0  0  0
    0.7278   -1.8523   -1.5695 N   0  0  0  0  0  0  0  0  0  0  0  0
    2.6370   -0.7046   -0.8809 N   0  0  0  0  0  0  0  0  0  0  0  0
    3.3175    0.2951   -0.2048 C   0  0  0  0  0  0  0  0  0  0  0  0
    4.8009    0.3096   -0.3093 N   0  0  0  0  0  0  0  0  0  0  0  0
    2.7043    1.1150    0.4408 N   0  0  0  0  0  0  0  0  0  0  0  0
    1.2163    1.2576    0.6604 C   0  0  2  0  0  0  0  0  0  0  0  0
    1.1872    0.4213    2.1299 C   0  0  0  0  0  0  0  0  0  0  0  0
   -1.6653    0.7151   -0.9383 C   0  0  0  0  0  0  0  0  0  0  0  0
   -3.0324    0.6511   -0.8112 C   0  0  0  0  0  0  0  0  0  0  0  0
  1  2  1  0
  2  3  2  0
  3  4  1  0
  4  5  2  0
  5  6  1  0
  6  7  1  0
  7  8  1  0
  7  9  2  0
  9 10  1  0
 10 11  1  0
 10 12  2  0
 12 13  1  0
 13 14  1  1
  5 15  1  0
 15 16  2  0
 16  2  1  0
 13  6  1  0
M  END
>  <zinc_id>  (537) 
ZINC000013476271

>  <ortholog_name>  (537) 
DRTS_PLAFK

>  <gene_name>  (537) 
DRTS_PLAFK

>  <affinity>  (537) 
6.73

>  <chembldocid>  (537) 
15522

>  <title>  (537) 
None

>  <reference.pubmed_id>  (537) 
10893311

>  <reference.doi>  (537) 
None

>  <reference.chembl_id>  (537) 
CHEMBL1133696

>  <reference.journal>  (537) 
J. Med. Chem.

>  <reference.year>  (537) 
2000

$$$$

     RDKit          3D

 16 17  0  0  0  0  0  0  0  0999 V2000
   -5.1408   -0.1399    0.3365 C   0  0  0  0  0  0  0  0  0  0  0  0
   -3.6399   -0.0657    0.1915 C   0  0  0  0  0  0  0  0  0  0  0  0
   -2.8085   -0.7178    1.0642 C   0  0  0  0  0  0  0  0  0  0  0  0
   -1.4508   -0.6482    0.9297 C   0  0  0  0  0  0  0  0  0  0  0  0
   -0.7936    0.0569   -0.0584 C   0  0  0  0  0  0  0  0  0  0  0  0
    0.5929    0.0897   -0.1427 N   0  0  0  0  0  0  0  0  0  0  0  0
    1.3475   -0.7829   -0.8378 C   0  0  0  0  0  0  0  0  0  0  0  0
    0.7278   -1.8523   -1.5695 N   0  0  0  0  0  0  0  0  0  0  0  0
    2.6370   -0.7046   -0.8809 N   0  0  0  0  0  0  0  0  0  0  0  0
    3.3175    0.2951   -0.2048 C   0  0  0  0  0  0  0  0  0  0  0  0
    4.8009    0.3096   -0.3093 N   0  0  0  0  0  0  0  0  0  0  0  0
    2.7043    1.1150    0.4408 N   0  0  0  0  0  0  0  0  0  0  0  0
    1.2163    1.2576    0.6604 C   0  0  2  0  0  0  0  0  0  0  0  0
    1.1872    0.4213    2.1299 C   0  0  0  0  0  0  0  0  0  0  0  0
   -1.6653    0.7151   -0.9383 C   0  0  0  0  0  0  0  0  0  0  0  0
   -3.0324    0.6511   -0.8112 C   0  0  0  0  0  0  0  0  0  0  0  0
  1  2  1  0
  2  3  2  0
  3  4  1  0
  4  5  2  0
  5  6  1  0
  6  7  1  0
  7  8  1  0
  7  9  2  0
  9 10  1  0
 10 11  1  0
 10 12  2  0
 12 13  1  0
 13 14  1  1
  5 15  1  0
 15 16  2  0
 16  2  1  0
 13  6  1  0
M  END
>  <zinc_id>  (538) 
ZINC000013476271

>  <ortholog_name>  (538) 
DRTS_PLAFK

>  <gene_name>  (538) 
DRTS_PLAFK

>  <affinity>  (538) 
7.64

>  <chembldocid>  (538) 
15522

>  <title>  (538) 
None

>  <reference.pubmed_id>  (538) 
10893311

>  <reference.doi>  (538) 
None

>  <reference.chembl_id>  (538) 
CHEMBL1133696

>  <reference.journal>  (538) 
J. Med. Chem.

>  <reference.year>  (538) 
2000

$$$$

     RDKit          3D

 22 23  0  0  0  0  0  0  0  0999 V2000
    6.4258    0.6264   -2.4812 C   0  0  0  0  0  0  0  0  0  0  0  0
    5.0581    1.0023   -1.9537 C   0  0  0  0  0  0  0  0  0  0  0  0
    4.5587   -0.0994   -1.0426 C   0  0  0  0  0  0  0  0  0  0  0  0
    3.2082    0.1920   -0.4755 C   0  0  0  0  0  0  0  0  0  0  0  0
    2.1552    0.3632   -1.5497 C   0  0  0  0  0  0  0  0  0  0  0  0
    0.8240    0.6521   -0.9452 C   0  0  0  0  0  0  0  0  0  0  0  0
    0.4080   -0.4948   -0.0376 C   0  0  1  0  0  0  0  0  0  0  0  0
    0.3151   -1.7928   -0.8273 C   0  0  0  0  0  0  0  0  0  0  0  0
    1.3873   -0.6952    0.9925 N   0  0  0  0  0  0  0  0  0  0  0  0
    1.1981   -0.6672    2.2493 C   0  0  0  0  0  0  0  0  0  0  0  0
    2.3483   -0.8998    3.0826 N   0  0  0  0  0  0  0  0  0  0  0  0
   -0.0861   -0.4184    2.8055 N   0  0  0  0  0  0  0  0  0  0  0  0
   -1.0340   -0.2255    1.9495 C   0  0  0  0  0  0  0  0  0  0  0  0
   -2.3848    0.0372    2.3973 N   0  0  0  0  0  0  0  0  0  0  0  0
   -0.8773   -0.2461    0.5469 N   0  0  0  0  0  0  0  0  0  0  0  0
   -1.9674   -0.0251   -0.3515 C   0  0  0  0  0  0  0  0  0  0  0  0
   -2.7714   -1.0095   -0.8430 C   0  0  0  0  0  0  0  0  0  0  0  0
   -3.8126   -0.7036   -1.7153 C   0  0  0  0  0  0  0  0  0  0  0  0
   -4.0787    0.5887   -2.1192 C   0  0  0  0  0  0  0  0  0  0  0  0
   -5.3964    0.9602   -3.2207 Cl  0  0  0  0  0  0  0  0  0  0  0  0
   -3.2617    1.5810   -1.6184 C   0  0  0  0  0  0  0  0  0  0  0  0
   -2.2163    1.2742   -0.7427 C   0  0  0  0  0  0  0  0  0  0  0  0
  1  2  1  0
  2  3  1  0
  3  4  1  0
  4  5  1  0
  5  6  1  0
  6  7  1  0
  7  8  1  6
  7  9  1  0
  9 10  2  0
 10 11  1  0
 10 12  1  0
 12 13  2  0
 13 14  1  0
 13 15  1  0
 15 16  1  0
 16 17  2  0
 17 18  1  0
 18 19  2  0
 19 20  1  0
 19 21  1  0
 21 22  2  0
 15  7  1  0
 22 16  1  0
M  END
>  <zinc_id>  (539) 
ZINC000013476276

>  <ortholog_name>  (539) 
DRTS_PLAFK

>  <gene_name>  (539) 
DRTS_PLAFK

>  <affinity>  (539) 
9.22

>  <chembldocid>  (539) 
17662

>  <title>  (539) 
None

>  <reference.pubmed_id>  (539) 
14736247

>  <reference.doi>  (539) 
None

>  <reference.chembl_id>  (539) 
CHEMBL1138835

>  <reference.journal>  (539) 
J. Med. Chem.

>  <reference.year>  (539) 
2004

$$$$

     RDKit          3D

 22 23  0  0  0  0  0  0  0  0999 V2000
    6.4258    0.6264   -2.4812 C   0  0  0  0  0  0  0  0  0  0  0  0
    5.0581    1.0023   -1.9537 C   0  0  0  0  0  0  0  0  0  0  0  0
    4.5587   -0.0994   -1.0426 C   0  0  0  0  0  0  0  0  0  0  0  0
    3.2082    0.1920   -0.4755 C   0  0  0  0  0  0  0  0  0  0  0  0
    2.1552    0.3632   -1.5497 C   0  0  0  0  0  0  0  0  0  0  0  0
    0.8240    0.6521   -0.9452 C   0  0  0  0  0  0  0  0  0  0  0  0
    0.4080   -0.4948   -0.0376 C   0  0  1  0  0  0  0  0  0  0  0  0
    0.3151   -1.7928   -0.8273 C   0  0  0  0  0  0  0  0  0  0  0  0
    1.3873   -0.6952    0.9925 N   0  0  0  0  0  0  0  0  0  0  0  0
    1.1981   -0.6672    2.2493 C   0  0  0  0  0  0  0  0  0  0  0  0
    2.3483   -0.8998    3.0826 N   0  0  0  0  0  0  0  0  0  0  0  0
   -0.0861   -0.4184    2.8055 N   0  0  0  0  0  0  0  0  0  0  0  0
   -1.0340   -0.2255    1.9495 C   0  0  0  0  0  0  0  0  0  0  0  0
   -2.3848    0.0372    2.3973 N   0  0  0  0  0  0  0  0  0  0  0  0
   -0.8773   -0.2461    0.5469 N   0  0  0  0  0  0  0  0  0  0  0  0
   -1.9674   -0.0251   -0.3515 C   0  0  0  0  0  0  0  0  0  0  0  0
   -2.7714   -1.0095   -0.8430 C   0  0  0  0  0  0  0  0  0  0  0  0
   -3.8126   -0.7036   -1.7153 C   0  0  0  0  0  0  0  0  0  0  0  0
   -4.0787    0.5887   -2.1192 C   0  0  0  0  0  0  0  0  0  0  0  0
   -5.3964    0.9602   -3.2207 Cl  0  0  0  0  0  0  0  0  0  0  0  0
   -3.2617    1.5810   -1.6184 C   0  0  0  0  0  0  0  0  0  0  0  0
   -2.2163    1.2742   -0.7427 C   0  0  0  0  0  0  0  0  0  0  0  0
  1  2  1  0
  2  3  1  0
  3  4  1  0
  4  5  1  0
  5  6  1  0
  6  7  1  0
  7  8  1  6
  7  9  1  0
  9 10  2  0
 10 11  1  0
 10 12  1  0
 12 13  2  0
 13 14  1  0
 13 15  1  0
 15 16  1  0
 16 17  2  0
 17 18  1  0
 18 19  2  0
 19 20  1  0
 19 21  1  0
 21 22  2  0
 15  7  1  0
 22 16  1  0
M  END
>  <zinc_id>  (540) 
ZINC000013476276

>  <ortholog_name>  (540) 
DRTS_PLAFK

>  <gene_name>  (540) 
DRTS_PLAFK

>  <affinity>  (540) 
7.95

>  <chembldocid>  (540) 
17662

>  <title>  (540) 
None

>  <reference.pubmed_id>  (540) 
14736247

>  <reference.doi>  (540) 
None

>  <reference.chembl_id>  (540) 
CHEMBL1138835

>  <reference.journal>  (540) 
J. Med. Chem.

>  <reference.year>  (540) 
2004

$$$$

     RDKit          3D

 22 23  0  0  0  0  0  0  0  0999 V2000
    6.4258    0.6264   -2.4812 C   0  0  0  0  0  0  0  0  0  0  0  0
    5.0581    1.0023   -1.9537 C   0  0  0  0  0  0  0  0  0  0  0  0
    4.5587   -0.0994   -1.0426 C   0  0  0  0  0  0  0  0  0  0  0  0
    3.2082    0.1920   -0.4755 C   0  0  0  0  0  0  0  0  0  0  0  0
    2.1552    0.3632   -1.5497 C   0  0  0  0  0  0  0  0  0  0  0  0
    0.8240    0.6521   -0.9452 C   0  0  0  0  0  0  0  0  0  0  0  0
    0.4080   -0.4948   -0.0376 C   0  0  1  0  0  0  0  0  0  0  0  0
    0.3151   -1.7928   -0.8273 C   0  0  0  0  0  0  0  0  0  0  0  0
    1.3873   -0.6952    0.9925 N   0  0  0  0  0  0  0  0  0  0  0  0
    1.1981   -0.6672    2.2493 C   0  0  0  0  0  0  0  0  0  0  0  0
    2.3483   -0.8998    3.0826 N   0  0  0  0  0  0  0  0  0  0  0  0
   -0.0861   -0.4184    2.8055 N   0  0  0  0  0  0  0  0  0  0  0  0
   -1.0340   -0.2255    1.9495 C   0  0  0  0  0  0  0  0  0  0  0  0
   -2.3848    0.0372    2.3973 N   0  0  0  0  0  0  0  0  0  0  0  0
   -0.8773   -0.2461    0.5469 N   0  0  0  0  0  0  0  0  0  0  0  0
   -1.9674   -0.0251   -0.3515 C   0  0  0  0  0  0  0  0  0  0  0  0
   -2.7714   -1.0095   -0.8430 C   0  0  0  0  0  0  0  0  0  0  0  0
   -3.8126   -0.7036   -1.7153 C   0  0  0  0  0  0  0  0  0  0  0  0
   -4.0787    0.5887   -2.1192 C   0  0  0  0  0  0  0  0  0  0  0  0
   -5.3964    0.9602   -3.2207 Cl  0  0  0  0  0  0  0  0  0  0  0  0
   -3.2617    1.5810   -1.6184 C   0  0  0  0  0  0  0  0  0  0  0  0
   -2.2163    1.2742   -0.7427 C   0  0  0  0  0  0  0  0  0  0  0  0
  1  2  1  0
  2  3  1  0
  3  4  1  0
  4  5  1  0
  5  6  1  0
  6  7  1  0
  7  8  1  6
  7  9  1  0
  9 10  2  0
 10 11  1  0
 10 12  1  0
 12 13  2  0
 13 14  1  0
 13 15  1  0
 15 16  1  0
 16 17  2  0
 17 18  1  0
 18 19  2  0
 19 20  1  0
 19 21  1  0
 21 22  2  0
 15  7  1  0
 22 16  1  0
M  END
>  <zinc_id>  (541) 
ZINC000013476276

>  <ortholog_name>  (541) 
DRTS_PLAFK

>  <gene_name>  (541) 
DRTS_PLAFK

>  <affinity>  (541) 
5.72

>  <chembldocid>  (541) 
17662

>  <title>  (541) 
None

>  <reference.pubmed_id>  (541) 
14736247

>  <reference.doi>  (541) 
None

>  <reference.chembl_id>  (541) 
CHEMBL1138835

>  <reference.journal>  (541) 
J. Med. Chem.

>  <reference.year>  (541) 
2004

$$$$

     RDKit          3D

 22 23  0  0  0  0  0  0  0  0999 V2000
    6.4258    0.6264   -2.4812 C   0  0  0  0  0  0  0  0  0  0  0  0
    5.0581    1.0023   -1.9537 C   0  0  0  0  0  0  0  0  0  0  0  0
    4.5587   -0.0994   -1.0426 C   0  0  0  0  0  0  0  0  0  0  0  0
    3.2082    0.1920   -0.4755 C   0  0  0  0  0  0  0  0  0  0  0  0
    2.1552    0.3632   -1.5497 C   0  0  0  0  0  0  0  0  0  0  0  0
    0.8240    0.6521   -0.9452 C   0  0  0  0  0  0  0  0  0  0  0  0
    0.4080   -0.4948   -0.0376 C   0  0  1  0  0  0  0  0  0  0  0  0
    0.3151   -1.7928   -0.8273 C   0  0  0  0  0  0  0  0  0  0  0  0
    1.3873   -0.6952    0.9925 N   0  0  0  0  0  0  0  0  0  0  0  0
    1.1981   -0.6672    2.2493 C   0  0  0  0  0  0  0  0  0  0  0  0
    2.3483   -0.8998    3.0826 N   0  0  0  0  0  0  0  0  0  0  0  0
   -0.0861   -0.4184    2.8055 N   0  0  0  0  0  0  0  0  0  0  0  0
   -1.0340   -0.2255    1.9495 C   0  0  0  0  0  0  0  0  0  0  0  0
   -2.3848    0.0372    2.3973 N   0  0  0  0  0  0  0  0  0  0  0  0
   -0.8773   -0.2461    0.5469 N   0  0  0  0  0  0  0  0  0  0  0  0
   -1.9674   -0.0251   -0.3515 C   0  0  0  0  0  0  0  0  0  0  0  0
   -2.7714   -1.0095   -0.8430 C   0  0  0  0  0  0  0  0  0  0  0  0
   -3.8126   -0.7036   -1.7153 C   0  0  0  0  0  0  0  0  0  0  0  0
   -4.0787    0.5887   -2.1192 C   0  0  0  0  0  0  0  0  0  0  0  0
   -5.3964    0.9602   -3.2207 Cl  0  0  0  0  0  0  0  0  0  0  0  0
   -3.2617    1.5810   -1.6184 C   0  0  0  0  0  0  0  0  0  0  0  0
   -2.2163    1.2742   -0.7427 C   0  0  0  0  0  0  0  0  0  0  0  0
  1  2  1  0
  2  3  1  0
  3  4  1  0
  4  5  1  0
  5  6  1  0
  6  7  1  0
  7  8  1  6
  7  9  1  0
  9 10  2  0
 10 11  1  0
 10 12  1  0
 12 13  2  0
 13 14  1  0
 13 15  1  0
 15 16  1  0
 16 17  2  0
 17 18  1  0
 18 19  2  0
 19 20  1  0
 19 21  1  0
 21 22  2  0
 15  7  1  0
 22 16  1  0
M  END
>  <zinc_id>  (542) 
ZINC000013476276

>  <ortholog_name>  (542) 
DRTS_PLAFK

>  <gene_name>  (542) 
DRTS_PLAFK

>  <affinity>  (542) 
7.70

>  <chembldocid>  (542) 
17662

>  <title>  (542) 
None

>  <reference.pubmed_id>  (542) 
14736247

>  <reference.doi>  (542) 
None

>  <reference.chembl_id>  (542) 
CHEMBL1138835

>  <reference.journal>  (542) 
J. Med. Chem.

>  <reference.year>  (542) 
2004

$$$$

     RDKit          3D

 22 23  0  0  0  0  0  0  0  0999 V2000
    6.4258    0.6264   -2.4812 C   0  0  0  0  0  0  0  0  0  0  0  0
    5.0581    1.0023   -1.9537 C   0  0  0  0  0  0  0  0  0  0  0  0
    4.5587   -0.0994   -1.0426 C   0  0  0  0  0  0  0  0  0  0  0  0
    3.2082    0.1920   -0.4755 C   0  0  0  0  0  0  0  0  0  0  0  0
    2.1552    0.3632   -1.5497 C   0  0  0  0  0  0  0  0  0  0  0  0
    0.8240    0.6521   -0.9452 C   0  0  0  0  0  0  0  0  0  0  0  0
    0.4080   -0.4948   -0.0376 C   0  0  1  0  0  0  0  0  0  0  0  0
    0.3151   -1.7928   -0.8273 C   0  0  0  0  0  0  0  0  0  0  0  0
    1.3873   -0.6952    0.9925 N   0  0  0  0  0  0  0  0  0  0  0  0
    1.1981   -0.6672    2.2493 C   0  0  0  0  0  0  0  0  0  0  0  0
    2.3483   -0.8998    3.0826 N   0  0  0  0  0  0  0  0  0  0  0  0
   -0.0861   -0.4184    2.8055 N   0  0  0  0  0  0  0  0  0  0  0  0
   -1.0340   -0.2255    1.9495 C   0  0  0  0  0  0  0  0  0  0  0  0
   -2.3848    0.0372    2.3973 N   0  0  0  0  0  0  0  0  0  0  0  0
   -0.8773   -0.2461    0.5469 N   0  0  0  0  0  0  0  0  0  0  0  0
   -1.9674   -0.0251   -0.3515 C   0  0  0  0  0  0  0  0  0  0  0  0
   -2.7714   -1.0095   -0.8430 C   0  0  0  0  0  0  0  0  0  0  0  0
   -3.8126   -0.7036   -1.7153 C   0  0  0  0  0  0  0  0  0  0  0  0
   -4.0787    0.5887   -2.1192 C   0  0  0  0  0  0  0  0  0  0  0  0
   -5.3964    0.9602   -3.2207 Cl  0  0  0  0  0  0  0  0  0  0  0  0
   -3.2617    1.5810   -1.6184 C   0  0  0  0  0  0  0  0  0  0  0  0
   -2.2163    1.2742   -0.7427 C   0  0  0  0  0  0  0  0  0  0  0  0
  1  2  1  0
  2  3  1  0
  3  4  1  0
  4  5  1  0
  5  6  1  0
  6  7  1  0
  7  8  1  6
  7  9  1  0
  9 10  2  0
 10 11  1  0
 10 12  1  0
 12 13  2  0
 13 14  1  0
 13 15  1  0
 15 16  1  0
 16 17  2  0
 17 18  1  0
 18 19  2  0
 19 20  1  0
 19 21  1  0
 21 22  2  0
 15  7  1  0
 22 16  1  0
M  END
>  <zinc_id>  (543) 
ZINC000013476276

>  <ortholog_name>  (543) 
DRTS_PLAFK

>  <gene_name>  (543) 
DRTS_PLAFK

>  <affinity>  (543) 
5.62

>  <chembldocid>  (543) 
17662

>  <title>  (543) 
None

>  <reference.pubmed_id>  (543) 
14736247

>  <reference.doi>  (543) 
None

>  <reference.chembl_id>  (543) 
CHEMBL1138835

>  <reference.journal>  (543) 
J. Med. Chem.

>  <reference.year>  (543) 
2004

$$$$

     RDKit          3D

 22 23  0  0  0  0  0  0  0  0999 V2000
    6.4258    0.6264   -2.4812 C   0  0  0  0  0  0  0  0  0  0  0  0
    5.0581    1.0023   -1.9537 C   0  0  0  0  0  0  0  0  0  0  0  0
    4.5587   -0.0994   -1.0426 C   0  0  0  0  0  0  0  0  0  0  0  0
    3.2082    0.1920   -0.4755 C   0  0  0  0  0  0  0  0  0  0  0  0
    2.1552    0.3632   -1.5497 C   0  0  0  0  0  0  0  0  0  0  0  0
    0.8240    0.6521   -0.9452 C   0  0  0  0  0  0  0  0  0  0  0  0
    0.4080   -0.4948   -0.0376 C   0  0  1  0  0  0  0  0  0  0  0  0
    0.3151   -1.7928   -0.8273 C   0  0  0  0  0  0  0  0  0  0  0  0
    1.3873   -0.6952    0.9925 N   0  0  0  0  0  0  0  0  0  0  0  0
    1.1981   -0.6672    2.2493 C   0  0  0  0  0  0  0  0  0  0  0  0
    2.3483   -0.8998    3.0826 N   0  0  0  0  0  0  0  0  0  0  0  0
   -0.0861   -0.4184    2.8055 N   0  0  0  0  0  0  0  0  0  0  0  0
   -1.0340   -0.2255    1.9495 C   0  0  0  0  0  0  0  0  0  0  0  0
   -2.3848    0.0372    2.3973 N   0  0  0  0  0  0  0  0  0  0  0  0
   -0.8773   -0.2461    0.5469 N   0  0  0  0  0  0  0  0  0  0  0  0
   -1.9674   -0.0251   -0.3515 C   0  0  0  0  0  0  0  0  0  0  0  0
   -2.7714   -1.0095   -0.8430 C   0  0  0  0  0  0  0  0  0  0  0  0
   -3.8126   -0.7036   -1.7153 C   0  0  0  0  0  0  0  0  0  0  0  0
   -4.0787    0.5887   -2.1192 C   0  0  0  0  0  0  0  0  0  0  0  0
   -5.3964    0.9602   -3.2207 Cl  0  0  0  0  0  0  0  0  0  0  0  0
   -3.2617    1.5810   -1.6184 C   0  0  0  0  0  0  0  0  0  0  0  0
   -2.2163    1.2742   -0.7427 C   0  0  0  0  0  0  0  0  0  0  0  0
  1  2  1  0
  2  3  1  0
  3  4  1  0
  4  5  1  0
  5  6  1  0
  6  7  1  0
  7  8  1  6
  7  9  1  0
  9 10  2  0
 10 11  1  0
 10 12  1  0
 12 13  2  0
 13 14  1  0
 13 15  1  0
 15 16  1  0
 16 17  2  0
 17 18  1  0
 18 19  2  0
 19 20  1  0
 19 21  1  0
 21 22  2  0
 15  7  1  0
 22 16  1  0
M  END
>  <zinc_id>  (544) 
ZINC000013476276

>  <ortholog_name>  (544) 
DRTS_PLAFK

>  <gene_name>  (544) 
DRTS_PLAFK

>  <affinity>  (544) 
5.48

>  <chembldocid>  (544) 
17662

>  <title>  (544) 
None

>  <reference.pubmed_id>  (544) 
14736247

>  <reference.doi>  (544) 
None

>  <reference.chembl_id>  (544) 
CHEMBL1138835

>  <reference.journal>  (544) 
J. Med. Chem.

>  <reference.year>  (544) 
2004

$$$$

     RDKit          3D

 22 23  0  0  0  0  0  0  0  0999 V2000
    6.4258    0.6264   -2.4812 C   0  0  0  0  0  0  0  0  0  0  0  0
    5.0581    1.0023   -1.9537 C   0  0  0  0  0  0  0  0  0  0  0  0
    4.5587   -0.0994   -1.0426 C   0  0  0  0  0  0  0  0  0  0  0  0
    3.2082    0.1920   -0.4755 C   0  0  0  0  0  0  0  0  0  0  0  0
    2.1552    0.3632   -1.5497 C   0  0  0  0  0  0  0  0  0  0  0  0
    0.8240    0.6521   -0.9452 C   0  0  0  0  0  0  0  0  0  0  0  0
    0.4080   -0.4948   -0.0376 C   0  0  1  0  0  0  0  0  0  0  0  0
    0.3151   -1.7928   -0.8273 C   0  0  0  0  0  0  0  0  0  0  0  0
    1.3873   -0.6952    0.9925 N   0  0  0  0  0  0  0  0  0  0  0  0
    1.1981   -0.6672    2.2493 C   0  0  0  0  0  0  0  0  0  0  0  0
    2.3483   -0.8998    3.0826 N   0  0  0  0  0  0  0  0  0  0  0  0
   -0.0861   -0.4184    2.8055 N   0  0  0  0  0  0  0  0  0  0  0  0
   -1.0340   -0.2255    1.9495 C   0  0  0  0  0  0  0  0  0  0  0  0
   -2.3848    0.0372    2.3973 N   0  0  0  0  0  0  0  0  0  0  0  0
   -0.8773   -0.2461    0.5469 N   0  0  0  0  0  0  0  0  0  0  0  0
   -1.9674   -0.0251   -0.3515 C   0  0  0  0  0  0  0  0  0  0  0  0
   -2.7714   -1.0095   -0.8430 C   0  0  0  0  0  0  0  0  0  0  0  0
   -3.8126   -0.7036   -1.7153 C   0  0  0  0  0  0  0  0  0  0  0  0
   -4.0787    0.5887   -2.1192 C   0  0  0  0  0  0  0  0  0  0  0  0
   -5.3964    0.9602   -3.2207 Cl  0  0  0  0  0  0  0  0  0  0  0  0
   -3.2617    1.5810   -1.6184 C   0  0  0  0  0  0  0  0  0  0  0  0
   -2.2163    1.2742   -0.7427 C   0  0  0  0  0  0  0  0  0  0  0  0
  1  2  1  0
  2  3  1  0
  3  4  1  0
  4  5  1  0
  5  6  1  0
  6  7  1  0
  7  8  1  6
  7  9  1  0
  9 10  2  0
 10 11  1  0
 10 12  1  0
 12 13  2  0
 13 14  1  0
 13 15  1  0
 15 16  1  0
 16 17  2  0
 17 18  1  0
 18 19  2  0
 19 20  1  0
 19 21  1  0
 21 22  2  0
 15  7  1  0
 22 16  1  0
M  END
>  <zinc_id>  (545) 
ZINC000013476276

>  <ortholog_name>  (545) 
DRTS_PLAFK

>  <gene_name>  (545) 
DRTS_PLAFK

>  <affinity>  (545) 
7.38

>  <chembldocid>  (545) 
17662

>  <title>  (545) 
None

>  <reference.pubmed_id>  (545) 
14736247

>  <reference.doi>  (545) 
None

>  <reference.chembl_id>  (545) 
CHEMBL1138835

>  <reference.journal>  (545) 
J. Med. Chem.

>  <reference.year>  (545) 
2004

$$$$

     RDKit          3D

 22 23  0  0  0  0  0  0  0  0999 V2000
    6.4258    0.6264   -2.4812 C   0  0  0  0  0  0  0  0  0  0  0  0
    5.0581    1.0023   -1.9537 C   0  0  0  0  0  0  0  0  0  0  0  0
    4.5587   -0.0994   -1.0426 C   0  0  0  0  0  0  0  0  0  0  0  0
    3.2082    0.1920   -0.4755 C   0  0  0  0  0  0  0  0  0  0  0  0
    2.1552    0.3632   -1.5497 C   0  0  0  0  0  0  0  0  0  0  0  0
    0.8240    0.6521   -0.9452 C   0  0  0  0  0  0  0  0  0  0  0  0
    0.4080   -0.4948   -0.0376 C   0  0  1  0  0  0  0  0  0  0  0  0
    0.3151   -1.7928   -0.8273 C   0  0  0  0  0  0  0  0  0  0  0  0
    1.3873   -0.6952    0.9925 N   0  0  0  0  0  0  0  0  0  0  0  0
    1.1981   -0.6672    2.2493 C   0  0  0  0  0  0  0  0  0  0  0  0
    2.3483   -0.8998    3.0826 N   0  0  0  0  0  0  0  0  0  0  0  0
   -0.0861   -0.4184    2.8055 N   0  0  0  0  0  0  0  0  0  0  0  0
   -1.0340   -0.2255    1.9495 C   0  0  0  0  0  0  0  0  0  0  0  0
   -2.3848    0.0372    2.3973 N   0  0  0  0  0  0  0  0  0  0  0  0
   -0.8773   -0.2461    0.5469 N   0  0  0  0  0  0  0  0  0  0  0  0
   -1.9674   -0.0251   -0.3515 C   0  0  0  0  0  0  0  0  0  0  0  0
   -2.7714   -1.0095   -0.8430 C   0  0  0  0  0  0  0  0  0  0  0  0
   -3.8126   -0.7036   -1.7153 C   0  0  0  0  0  0  0  0  0  0  0  0
   -4.0787    0.5887   -2.1192 C   0  0  0  0  0  0  0  0  0  0  0  0
   -5.3964    0.9602   -3.2207 Cl  0  0  0  0  0  0  0  0  0  0  0  0
   -3.2617    1.5810   -1.6184 C   0  0  0  0  0  0  0  0  0  0  0  0
   -2.2163    1.2742   -0.7427 C   0  0  0  0  0  0  0  0  0  0  0  0
  1  2  1  0
  2  3  1  0
  3  4  1  0
  4  5  1  0
  5  6  1  0
  6  7  1  0
  7  8  1  6
  7  9  1  0
  9 10  2  0
 10 11  1  0
 10 12  1  0
 12 13  2  0
 13 14  1  0
 13 15  1  0
 15 16  1  0
 16 17  2  0
 17 18  1  0
 18 19  2  0
 19 20  1  0
 19 21  1  0
 21 22  2  0
 15  7  1  0
 22 16  1  0
M  END
>  <zinc_id>  (546) 
ZINC000013476276

>  <ortholog_name>  (546) 
DRTS_PLAFK

>  <gene_name>  (546) 
DRTS_PLAFK

>  <affinity>  (546) 
5.39

>  <chembldocid>  (546) 
17662

>  <title>  (546) 
None

>  <reference.pubmed_id>  (546) 
14736247

>  <reference.doi>  (546) 
None

>  <reference.chembl_id>  (546) 
CHEMBL1138835

>  <reference.journal>  (546) 
J. Med. Chem.

>  <reference.year>  (546) 
2004

$$$$

     RDKit          3D

 22 23  0  0  0  0  0  0  0  0999 V2000
    6.4258    0.6264   -2.4812 C   0  0  0  0  0  0  0  0  0  0  0  0
    5.0581    1.0023   -1.9537 C   0  0  0  0  0  0  0  0  0  0  0  0
    4.5587   -0.0994   -1.0426 C   0  0  0  0  0  0  0  0  0  0  0  0
    3.2082    0.1920   -0.4755 C   0  0  0  0  0  0  0  0  0  0  0  0
    2.1552    0.3632   -1.5497 C   0  0  0  0  0  0  0  0  0  0  0  0
    0.8240    0.6521   -0.9452 C   0  0  0  0  0  0  0  0  0  0  0  0
    0.4080   -0.4948   -0.0376 C   0  0  1  0  0  0  0  0  0  0  0  0
    0.3151   -1.7928   -0.8273 C   0  0  0  0  0  0  0  0  0  0  0  0
    1.3873   -0.6952    0.9925 N   0  0  0  0  0  0  0  0  0  0  0  0
    1.1981   -0.6672    2.2493 C   0  0  0  0  0  0  0  0  0  0  0  0
    2.3483   -0.8998    3.0826 N   0  0  0  0  0  0  0  0  0  0  0  0
   -0.0861   -0.4184    2.8055 N   0  0  0  0  0  0  0  0  0  0  0  0
   -1.0340   -0.2255    1.9495 C   0  0  0  0  0  0  0  0  0  0  0  0
   -2.3848    0.0372    2.3973 N   0  0  0  0  0  0  0  0  0  0  0  0
   -0.8773   -0.2461    0.5469 N   0  0  0  0  0  0  0  0  0  0  0  0
   -1.9674   -0.0251   -0.3515 C   0  0  0  0  0  0  0  0  0  0  0  0
   -2.7714   -1.0095   -0.8430 C   0  0  0  0  0  0  0  0  0  0  0  0
   -3.8126   -0.7036   -1.7153 C   0  0  0  0  0  0  0  0  0  0  0  0
   -4.0787    0.5887   -2.1192 C   0  0  0  0  0  0  0  0  0  0  0  0
   -5.3964    0.9602   -3.2207 Cl  0  0  0  0  0  0  0  0  0  0  0  0
   -3.2617    1.5810   -1.6184 C   0  0  0  0  0  0  0  0  0  0  0  0
   -2.2163    1.2742   -0.7427 C   0  0  0  0  0  0  0  0  0  0  0  0
  1  2  1  0
  2  3  1  0
  3  4  1  0
  4  5  1  0
  5  6  1  0
  6  7  1  0
  7  8  1  6
  7  9  1  0
  9 10  2  0
 10 11  1  0
 10 12  1  0
 12 13  2  0
 13 14  1  0
 13 15  1  0
 15 16  1  0
 16 17  2  0
 17 18  1  0
 18 19  2  0
 19 20  1  0
 19 21  1  0
 21 22  2  0
 15  7  1  0
 22 16  1  0
M  END
>  <zinc_id>  (547) 
ZINC000013476276

>  <ortholog_name>  (547) 
DRTS_PLAFK

>  <gene_name>  (547) 
DRTS_PLAFK

>  <affinity>  (547) 
5.19

>  <chembldocid>  (547) 
17662

>  <title>  (547) 
None

>  <reference.pubmed_id>  (547) 
14736247

>  <reference.doi>  (547) 
None

>  <reference.chembl_id>  (547) 
CHEMBL1138835

>  <reference.journal>  (547) 
J. Med. Chem.

>  <reference.year>  (547) 
2004

$$$$

     RDKit          3D

 22 23  0  0  0  0  0  0  0  0999 V2000
    6.4258    0.6264   -2.4812 C   0  0  0  0  0  0  0  0  0  0  0  0
    5.0581    1.0023   -1.9537 C   0  0  0  0  0  0  0  0  0  0  0  0
    4.5587   -0.0994   -1.0426 C   0  0  0  0  0  0  0  0  0  0  0  0
    3.2082    0.1920   -0.4755 C   0  0  0  0  0  0  0  0  0  0  0  0
    2.1552    0.3632   -1.5497 C   0  0  0  0  0  0  0  0  0  0  0  0
    0.8240    0.6521   -0.9452 C   0  0  0  0  0  0  0  0  0  0  0  0
    0.4080   -0.4948   -0.0376 C   0  0  1  0  0  0  0  0  0  0  0  0
    0.3151   -1.7928   -0.8273 C   0  0  0  0  0  0  0  0  0  0  0  0
    1.3873   -0.6952    0.9925 N   0  0  0  0  0  0  0  0  0  0  0  0
    1.1981   -0.6672    2.2493 C   0  0  0  0  0  0  0  0  0  0  0  0
    2.3483   -0.8998    3.0826 N   0  0  0  0  0  0  0  0  0  0  0  0
   -0.0861   -0.4184    2.8055 N   0  0  0  0  0  0  0  0  0  0  0  0
   -1.0340   -0.2255    1.9495 C   0  0  0  0  0  0  0  0  0  0  0  0
   -2.3848    0.0372    2.3973 N   0  0  0  0  0  0  0  0  0  0  0  0
   -0.8773   -0.2461    0.5469 N   0  0  0  0  0  0  0  0  0  0  0  0
   -1.9674   -0.0251   -0.3515 C   0  0  0  0  0  0  0  0  0  0  0  0
   -2.7714   -1.0095   -0.8430 C   0  0  0  0  0  0  0  0  0  0  0  0
   -3.8126   -0.7036   -1.7153 C   0  0  0  0  0  0  0  0  0  0  0  0
   -4.0787    0.5887   -2.1192 C   0  0  0  0  0  0  0  0  0  0  0  0
   -5.3964    0.9602   -3.2207 Cl  0  0  0  0  0  0  0  0  0  0  0  0
   -3.2617    1.5810   -1.6184 C   0  0  0  0  0  0  0  0  0  0  0  0
   -2.2163    1.2742   -0.7427 C   0  0  0  0  0  0  0  0  0  0  0  0
  1  2  1  0
  2  3  1  0
  3  4  1  0
  4  5  1  0
  5  6  1  0
  6  7  1  0
  7  8  1  6
  7  9  1  0
  9 10  2  0
 10 11  1  0
 10 12  1  0
 12 13  2  0
 13 14  1  0
 13 15  1  0
 15 16  1  0
 16 17  2  0
 17 18  1  0
 18 19  2  0
 19 20  1  0
 19 21  1  0
 21 22  2  0
 15  7  1  0
 22 16  1  0
M  END
>  <zinc_id>  (548) 
ZINC000013476276

>  <ortholog_name>  (548) 
DRTS_PLAFK

>  <gene_name>  (548) 
DRTS_PLAFK

>  <affinity>  (548) 
7.16

>  <chembldocid>  (548) 
17662

>  <title>  (548) 
None

>  <reference.pubmed_id>  (548) 
14736247

>  <reference.doi>  (548) 
None

>  <reference.chembl_id>  (548) 
CHEMBL1138835

>  <reference.journal>  (548) 
J. Med. Chem.

>  <reference.year>  (548) 
2004

$$$$

     RDKit          3D

 22 23  0  0  0  0  0  0  0  0999 V2000
    6.4258    0.6264   -2.4812 C   0  0  0  0  0  0  0  0  0  0  0  0
    5.0581    1.0023   -1.9537 C   0  0  0  0  0  0  0  0  0  0  0  0
    4.5587   -0.0994   -1.0426 C   0  0  0  0  0  0  0  0  0  0  0  0
    3.2082    0.1920   -0.4755 C   0  0  0  0  0  0  0  0  0  0  0  0
    2.1552    0.3632   -1.5497 C   0  0  0  0  0  0  0  0  0  0  0  0
    0.8240    0.6521   -0.9452 C   0  0  0  0  0  0  0  0  0  0  0  0
    0.4080   -0.4948   -0.0376 C   0  0  1  0  0  0  0  0  0  0  0  0
    0.3151   -1.7928   -0.8273 C   0  0  0  0  0  0  0  0  0  0  0  0
    1.3873   -0.6952    0.9925 N   0  0  0  0  0  0  0  0  0  0  0  0
    1.1981   -0.6672    2.2493 C   0  0  0  0  0  0  0  0  0  0  0  0
    2.3483   -0.8998    3.0826 N   0  0  0  0  0  0  0  0  0  0  0  0
   -0.0861   -0.4184    2.8055 N   0  0  0  0  0  0  0  0  0  0  0  0
   -1.0340   -0.2255    1.9495 C   0  0  0  0  0  0  0  0  0  0  0  0
   -2.3848    0.0372    2.3973 N   0  0  0  0  0  0  0  0  0  0  0  0
   -0.8773   -0.2461    0.5469 N   0  0  0  0  0  0  0  0  0  0  0  0
   -1.9674   -0.0251   -0.3515 C   0  0  0  0  0  0  0  0  0  0  0  0
   -2.7714   -1.0095   -0.8430 C   0  0  0  0  0  0  0  0  0  0  0  0
   -3.8126   -0.7036   -1.7153 C   0  0  0  0  0  0  0  0  0  0  0  0
   -4.0787    0.5887   -2.1192 C   0  0  0  0  0  0  0  0  0  0  0  0
   -5.3964    0.9602   -3.2207 Cl  0  0  0  0  0  0  0  0  0  0  0  0
   -3.2617    1.5810   -1.6184 C   0  0  0  0  0  0  0  0  0  0  0  0
   -2.2163    1.2742   -0.7427 C   0  0  0  0  0  0  0  0  0  0  0  0
  1  2  1  0
  2  3  1  0
  3  4  1  0
  4  5  1  0
  5  6  1  0
  6  7  1  0
  7  8  1  6
  7  9  1  0
  9 10  2  0
 10 11  1  0
 10 12  1  0
 12 13  2  0
 13 14  1  0
 13 15  1  0
 15 16  1  0
 16 17  2  0
 17 18  1  0
 18 19  2  0
 19 20  1  0
 19 21  1  0
 21 22  2  0
 15  7  1  0
 22 16  1  0
M  END
>  <zinc_id>  (549) 
ZINC000013476276

>  <ortholog_name>  (549) 
DRTS_PLAFK

>  <gene_name>  (549) 
DRTS_PLAFK

>  <affinity>  (549) 
6.02

>  <chembldocid>  (549) 
17662

>  <title>  (549) 
None

>  <reference.pubmed_id>  (549) 
14736247

>  <reference.doi>  (549) 
None

>  <reference.chembl_id>  (549) 
CHEMBL1138835

>  <reference.journal>  (549) 
J. Med. Chem.

>  <reference.year>  (549) 
2004

$$$$

     RDKit          3D

 22 23  0  0  0  0  0  0  0  0999 V2000
   -5.3068   -1.4167    3.8153 C   0  0  0  0  0  0  0  0  0  0  0  0
   -3.9848   -1.4320    3.1184 C   0  0  0  0  0  0  0  0  0  0  0  0
   -3.6501   -0.0946    2.4904 C   0  0  0  0  0  0  0  0  0  0  0  0
   -2.3123   -0.1438    1.7966 C   0  0  0  0  0  0  0  0  0  0  0  0
   -2.3349   -1.1938    0.7058 C   0  0  0  0  0  0  0  0  0  0  0  0
   -0.9754   -1.1997    0.0469 C   0  0  0  0  0  0  0  0  0  0  0  0
   -0.6870    0.1749   -0.5530 C   0  0  2  0  0  0  0  0  0  0  0  0
   -0.7258    1.1575    0.6160 C   0  0  0  0  0  0  0  0  0  0  0  0
   -1.6946    0.4959   -1.5147 N   0  0  0  0  0  0  0  0  0  0  0  0
   -1.4626    0.7478   -2.7338 C   0  0  0  0  0  0  0  0  0  0  0  0
   -2.5725    1.0597   -3.6090 N   0  0  0  0  0  0  0  0  0  0  0  0
   -0.1386    0.7233   -3.2266 N   0  0  0  0  0  0  0  0  0  0  0  0
    0.8806    0.4536   -2.4968 C   0  0  0  0  0  0  0  0  0  0  0  0
    2.2093    0.4350   -3.0179 N   0  0  0  0  0  0  0  0  0  0  0  0
    0.6326    0.1697   -1.1290 N   0  0  0  0  0  0  0  0  0  0  0  0
    1.7345   -0.1338   -0.2876 C   0  0  0  0  0  0  0  0  0  0  0  0
    2.3537    0.9054    0.3591 C   0  0  0  0  0  0  0  0  0  0  0  0
    3.4145    0.6802    1.1787 C   0  0  0  0  0  0  0  0  0  0  0  0
    3.8853   -0.5799    1.3758 C   0  0  0  0  0  0  0  0  0  0  0  0
    5.2463   -0.9339    2.4181 Cl  0  0  0  0  0  0  0  0  0  0  0  0
    3.2817   -1.6436    0.7381 C   0  0  0  0  0  0  0  0  0  0  0  0
    2.2072   -1.4055   -0.0908 C   0  0  0  0  0  0  0  0  0  0  0  0
  1  2  1  0
  2  3  1  0
  3  4  1  0
  4  5  1  0
  5  6  1  0
  6  7  1  0
  7  8  1  1
  7  9  1  0
  9 10  2  0
 10 11  1  0
 10 12  1  0
 12 13  2  0
 13 14  1  0
 13 15  1  0
 15 16  1  0
 16 17  2  0
 17 18  1  0
 18 19  2  0
 19 20  1  0
 19 21  1  0
 21 22  2  0
 15  7  1  0
 22 16  1  0
M  END
>  <zinc_id>  (550) 
ZINC000013476277

>  <ortholog_name>  (550) 
DRTS_PLAFK

>  <gene_name>  (550) 
DRTS_PLAFK

>  <affinity>  (550) 
9.22

>  <chembldocid>  (550) 
17662

>  <title>  (550) 
None

>  <reference.pubmed_id>  (550) 
14736247

>  <reference.doi>  (550) 
None

>  <reference.chembl_id>  (550) 
CHEMBL1138835

>  <reference.journal>  (550) 
J. Med. Chem.

>  <reference.year>  (550) 
2004

$$$$

     RDKit          3D

 22 23  0  0  0  0  0  0  0  0999 V2000
   -5.3068   -1.4167    3.8153 C   0  0  0  0  0  0  0  0  0  0  0  0
   -3.9848   -1.4320    3.1184 C   0  0  0  0  0  0  0  0  0  0  0  0
   -3.6501   -0.0946    2.4904 C   0  0  0  0  0  0  0  0  0  0  0  0
   -2.3123   -0.1438    1.7966 C   0  0  0  0  0  0  0  0  0  0  0  0
   -2.3349   -1.1938    0.7058 C   0  0  0  0  0  0  0  0  0  0  0  0
   -0.9754   -1.1997    0.0469 C   0  0  0  0  0  0  0  0  0  0  0  0
   -0.6870    0.1749   -0.5530 C   0  0  2  0  0  0  0  0  0  0  0  0
   -0.7258    1.1575    0.6160 C   0  0  0  0  0  0  0  0  0  0  0  0
   -1.6946    0.4959   -1.5147 N   0  0  0  0  0  0  0  0  0  0  0  0
   -1.4626    0.7478   -2.7338 C   0  0  0  0  0  0  0  0  0  0  0  0
   -2.5725    1.0597   -3.6090 N   0  0  0  0  0  0  0  0  0  0  0  0
   -0.1386    0.7233   -3.2266 N   0  0  0  0  0  0  0  0  0  0  0  0
    0.8806    0.4536   -2.4968 C   0  0  0  0  0  0  0  0  0  0  0  0
    2.2093    0.4350   -3.0179 N   0  0  0  0  0  0  0  0  0  0  0  0
    0.6326    0.1697   -1.1290 N   0  0  0  0  0  0  0  0  0  0  0  0
    1.7345   -0.1338   -0.2876 C   0  0  0  0  0  0  0  0  0  0  0  0
    2.3537    0.9054    0.3591 C   0  0  0  0  0  0  0  0  0  0  0  0
    3.4145    0.6802    1.1787 C   0  0  0  0  0  0  0  0  0  0  0  0
    3.8853   -0.5799    1.3758 C   0  0  0  0  0  0  0  0  0  0  0  0
    5.2463   -0.9339    2.4181 Cl  0  0  0  0  0  0  0  0  0  0  0  0
    3.2817   -1.6436    0.7381 C   0  0  0  0  0  0  0  0  0  0  0  0
    2.2072   -1.4055   -0.0908 C   0  0  0  0  0  0  0  0  0  0  0  0
  1  2  1  0
  2  3  1  0
  3  4  1  0
  4  5  1  0
  5  6  1  0
  6  7  1  0
  7  8  1  1
  7  9  1  0
  9 10  2  0
 10 11  1  0
 10 12  1  0
 12 13  2  0
 13 14  1  0
 13 15  1  0
 15 16  1  0
 16 17  2  0
 17 18  1  0
 18 19  2  0
 19 20  1  0
 19 21  1  0
 21 22  2  0
 15  7  1  0
 22 16  1  0
M  END
>  <zinc_id>  (551) 
ZINC000013476277

>  <ortholog_name>  (551) 
DRTS_PLAFK

>  <gene_name>  (551) 
DRTS_PLAFK

>  <affinity>  (551) 
7.95

>  <chembldocid>  (551) 
17662

>  <title>  (551) 
None

>  <reference.pubmed_id>  (551) 
14736247

>  <reference.doi>  (551) 
None

>  <reference.chembl_id>  (551) 
CHEMBL1138835

>  <reference.journal>  (551) 
J. Med. Chem.

>  <reference.year>  (551) 
2004

$$$$

     RDKit          3D

 22 23  0  0  0  0  0  0  0  0999 V2000
   -5.3068   -1.4167    3.8153 C   0  0  0  0  0  0  0  0  0  0  0  0
   -3.9848   -1.4320    3.1184 C   0  0  0  0  0  0  0  0  0  0  0  0
   -3.6501   -0.0946    2.4904 C   0  0  0  0  0  0  0  0  0  0  0  0
   -2.3123   -0.1438    1.7966 C   0  0  0  0  0  0  0  0  0  0  0  0
   -2.3349   -1.1938    0.7058 C   0  0  0  0  0  0  0  0  0  0  0  0
   -0.9754   -1.1997    0.0469 C   0  0  0  0  0  0  0  0  0  0  0  0
   -0.6870    0.1749   -0.5530 C   0  0  2  0  0  0  0  0  0  0  0  0
   -0.7258    1.1575    0.6160 C   0  0  0  0  0  0  0  0  0  0  0  0
   -1.6946    0.4959   -1.5147 N   0  0  0  0  0  0  0  0  0  0  0  0
   -1.4626    0.7478   -2.7338 C   0  0  0  0  0  0  0  0  0  0  0  0
   -2.5725    1.0597   -3.6090 N   0  0  0  0  0  0  0  0  0  0  0  0
   -0.1386    0.7233   -3.2266 N   0  0  0  0  0  0  0  0  0  0  0  0
    0.8806    0.4536   -2.4968 C   0  0  0  0  0  0  0  0  0  0  0  0
    2.2093    0.4350   -3.0179 N   0  0  0  0  0  0  0  0  0  0  0  0
    0.6326    0.1697   -1.1290 N   0  0  0  0  0  0  0  0  0  0  0  0
    1.7345   -0.1338   -0.2876 C   0  0  0  0  0  0  0  0  0  0  0  0
    2.3537    0.9054    0.3591 C   0  0  0  0  0  0  0  0  0  0  0  0
    3.4145    0.6802    1.1787 C   0  0  0  0  0  0  0  0  0  0  0  0
    3.8853   -0.5799    1.3758 C   0  0  0  0  0  0  0  0  0  0  0  0
    5.2463   -0.9339    2.4181 Cl  0  0  0  0  0  0  0  0  0  0  0  0
    3.2817   -1.6436    0.7381 C   0  0  0  0  0  0  0  0  0  0  0  0
    2.2072   -1.4055   -0.0908 C   0  0  0  0  0  0  0  0  0  0  0  0
  1  2  1  0
  2  3  1  0
  3  4  1  0
  4  5  1  0
  5  6  1  0
  6  7  1  0
  7  8  1  1
  7  9  1  0
  9 10  2  0
 10 11  1  0
 10 12  1  0
 12 13  2  0
 13 14  1  0
 13 15  1  0
 15 16  1  0
 16 17  2  0
 17 18  1  0
 18 19  2  0
 19 20  1  0
 19 21  1  0
 21 22  2  0
 15  7  1  0
 22 16  1  0
M  END
>  <zinc_id>  (552) 
ZINC000013476277

>  <ortholog_name>  (552) 
DRTS_PLAFK

>  <gene_name>  (552) 
DRTS_PLAFK

>  <affinity>  (552) 
5.72

>  <chembldocid>  (552) 
17662

>  <title>  (552) 
None

>  <reference.pubmed_id>  (552) 
14736247

>  <reference.doi>  (552) 
None

>  <reference.chembl_id>  (552) 
CHEMBL1138835

>  <reference.journal>  (552) 
J. Med. Chem.

>  <reference.year>  (552) 
2004

$$$$

     RDKit          3D

 22 23  0  0  0  0  0  0  0  0999 V2000
   -5.3068   -1.4167    3.8153 C   0  0  0  0  0  0  0  0  0  0  0  0
   -3.9848   -1.4320    3.1184 C   0  0  0  0  0  0  0  0  0  0  0  0
   -3.6501   -0.0946    2.4904 C   0  0  0  0  0  0  0  0  0  0  0  0
   -2.3123   -0.1438    1.7966 C   0  0  0  0  0  0  0  0  0  0  0  0
   -2.3349   -1.1938    0.7058 C   0  0  0  0  0  0  0  0  0  0  0  0
   -0.9754   -1.1997    0.0469 C   0  0  0  0  0  0  0  0  0  0  0  0
   -0.6870    0.1749   -0.5530 C   0  0  2  0  0  0  0  0  0  0  0  0
   -0.7258    1.1575    0.6160 C   0  0  0  0  0  0  0  0  0  0  0  0
   -1.6946    0.4959   -1.5147 N   0  0  0  0  0  0  0  0  0  0  0  0
   -1.4626    0.7478   -2.7338 C   0  0  0  0  0  0  0  0  0  0  0  0
   -2.5725    1.0597   -3.6090 N   0  0  0  0  0  0  0  0  0  0  0  0
   -0.1386    0.7233   -3.2266 N   0  0  0  0  0  0  0  0  0  0  0  0
    0.8806    0.4536   -2.4968 C   0  0  0  0  0  0  0  0  0  0  0  0
    2.2093    0.4350   -3.0179 N   0  0  0  0  0  0  0  0  0  0  0  0
    0.6326    0.1697   -1.1290 N   0  0  0  0  0  0  0  0  0  0  0  0
    1.7345   -0.1338   -0.2876 C   0  0  0  0  0  0  0  0  0  0  0  0
    2.3537    0.9054    0.3591 C   0  0  0  0  0  0  0  0  0  0  0  0
    3.4145    0.6802    1.1787 C   0  0  0  0  0  0  0  0  0  0  0  0
    3.8853   -0.5799    1.3758 C   0  0  0  0  0  0  0  0  0  0  0  0
    5.2463   -0.9339    2.4181 Cl  0  0  0  0  0  0  0  0  0  0  0  0
    3.2817   -1.6436    0.7381 C   0  0  0  0  0  0  0  0  0  0  0  0
    2.2072   -1.4055   -0.0908 C   0  0  0  0  0  0  0  0  0  0  0  0
  1  2  1  0
  2  3  1  0
  3  4  1  0
  4  5  1  0
  5  6  1  0
  6  7  1  0
  7  8  1  1
  7  9  1  0
  9 10  2  0
 10 11  1  0
 10 12  1  0
 12 13  2  0
 13 14  1  0
 13 15  1  0
 15 16  1  0
 16 17  2  0
 17 18  1  0
 18 19  2  0
 19 20  1  0
 19 21  1  0
 21 22  2  0
 15  7  1  0
 22 16  1  0
M  END
>  <zinc_id>  (553) 
ZINC000013476277

>  <ortholog_name>  (553) 
DRTS_PLAFK

>  <gene_name>  (553) 
DRTS_PLAFK

>  <affinity>  (553) 
7.70

>  <chembldocid>  (553) 
17662

>  <title>  (553) 
None

>  <reference.pubmed_id>  (553) 
14736247

>  <reference.doi>  (553) 
None

>  <reference.chembl_id>  (553) 
CHEMBL1138835

>  <reference.journal>  (553) 
J. Med. Chem.

>  <reference.year>  (553) 
2004

$$$$

     RDKit          3D

 22 23  0  0  0  0  0  0  0  0999 V2000
   -5.3068   -1.4167    3.8153 C   0  0  0  0  0  0  0  0  0  0  0  0
   -3.9848   -1.4320    3.1184 C   0  0  0  0  0  0  0  0  0  0  0  0
   -3.6501   -0.0946    2.4904 C   0  0  0  0  0  0  0  0  0  0  0  0
   -2.3123   -0.1438    1.7966 C   0  0  0  0  0  0  0  0  0  0  0  0
   -2.3349   -1.1938    0.7058 C   0  0  0  0  0  0  0  0  0  0  0  0
   -0.9754   -1.1997    0.0469 C   0  0  0  0  0  0  0  0  0  0  0  0
   -0.6870    0.1749   -0.5530 C   0  0  2  0  0  0  0  0  0  0  0  0
   -0.7258    1.1575    0.6160 C   0  0  0  0  0  0  0  0  0  0  0  0
   -1.6946    0.4959   -1.5147 N   0  0  0  0  0  0  0  0  0  0  0  0
   -1.4626    0.7478   -2.7338 C   0  0  0  0  0  0  0  0  0  0  0  0
   -2.5725    1.0597   -3.6090 N   0  0  0  0  0  0  0  0  0  0  0  0
   -0.1386    0.7233   -3.2266 N   0  0  0  0  0  0  0  0  0  0  0  0
    0.8806    0.4536   -2.4968 C   0  0  0  0  0  0  0  0  0  0  0  0
    2.2093    0.4350   -3.0179 N   0  0  0  0  0  0  0  0  0  0  0  0
    0.6326    0.1697   -1.1290 N   0  0  0  0  0  0  0  0  0  0  0  0
    1.7345   -0.1338   -0.2876 C   0  0  0  0  0  0  0  0  0  0  0  0
    2.3537    0.9054    0.3591 C   0  0  0  0  0  0  0  0  0  0  0  0
    3.4145    0.6802    1.1787 C   0  0  0  0  0  0  0  0  0  0  0  0
    3.8853   -0.5799    1.3758 C   0  0  0  0  0  0  0  0  0  0  0  0
    5.2463   -0.9339    2.4181 Cl  0  0  0  0  0  0  0  0  0  0  0  0
    3.2817   -1.6436    0.7381 C   0  0  0  0  0  0  0  0  0  0  0  0
    2.2072   -1.4055   -0.0908 C   0  0  0  0  0  0  0  0  0  0  0  0
  1  2  1  0
  2  3  1  0
  3  4  1  0
  4  5  1  0
  5  6  1  0
  6  7  1  0
  7  8  1  1
  7  9  1  0
  9 10  2  0
 10 11  1  0
 10 12  1  0
 12 13  2  0
 13 14  1  0
 13 15  1  0
 15 16  1  0
 16 17  2  0
 17 18  1  0
 18 19  2  0
 19 20  1  0
 19 21  1  0
 21 22  2  0
 15  7  1  0
 22 16  1  0
M  END
>  <zinc_id>  (554) 
ZINC000013476277

>  <ortholog_name>  (554) 
DRTS_PLAFK

>  <gene_name>  (554) 
DRTS_PLAFK

>  <affinity>  (554) 
5.62

>  <chembldocid>  (554) 
17662

>  <title>  (554) 
None

>  <reference.pubmed_id>  (554) 
14736247

>  <reference.doi>  (554) 
None

>  <reference.chembl_id>  (554) 
CHEMBL1138835

>  <reference.journal>  (554) 
J. Med. Chem.

>  <reference.year>  (554) 
2004

$$$$

     RDKit          3D

 22 23  0  0  0  0  0  0  0  0999 V2000
   -5.3068   -1.4167    3.8153 C   0  0  0  0  0  0  0  0  0  0  0  0
   -3.9848   -1.4320    3.1184 C   0  0  0  0  0  0  0  0  0  0  0  0
   -3.6501   -0.0946    2.4904 C   0  0  0  0  0  0  0  0  0  0  0  0
   -2.3123   -0.1438    1.7966 C   0  0  0  0  0  0  0  0  0  0  0  0
   -2.3349   -1.1938    0.7058 C   0  0  0  0  0  0  0  0  0  0  0  0
   -0.9754   -1.1997    0.0469 C   0  0  0  0  0  0  0  0  0  0  0  0
   -0.6870    0.1749   -0.5530 C   0  0  2  0  0  0  0  0  0  0  0  0
   -0.7258    1.1575    0.6160 C   0  0  0  0  0  0  0  0  0  0  0  0
   -1.6946    0.4959   -1.5147 N   0  0  0  0  0  0  0  0  0  0  0  0
   -1.4626    0.7478   -2.7338 C   0  0  0  0  0  0  0  0  0  0  0  0
   -2.5725    1.0597   -3.6090 N   0  0  0  0  0  0  0  0  0  0  0  0
   -0.1386    0.7233   -3.2266 N   0  0  0  0  0  0  0  0  0  0  0  0
    0.8806    0.4536   -2.4968 C   0  0  0  0  0  0  0  0  0  0  0  0
    2.2093    0.4350   -3.0179 N   0  0  0  0  0  0  0  0  0  0  0  0
    0.6326    0.1697   -1.1290 N   0  0  0  0  0  0  0  0  0  0  0  0
    1.7345   -0.1338   -0.2876 C   0  0  0  0  0  0  0  0  0  0  0  0
    2.3537    0.9054    0.3591 C   0  0  0  0  0  0  0  0  0  0  0  0
    3.4145    0.6802    1.1787 C   0  0  0  0  0  0  0  0  0  0  0  0
    3.8853   -0.5799    1.3758 C   0  0  0  0  0  0  0  0  0  0  0  0
    5.2463   -0.9339    2.4181 Cl  0  0  0  0  0  0  0  0  0  0  0  0
    3.2817   -1.6436    0.7381 C   0  0  0  0  0  0  0  0  0  0  0  0
    2.2072   -1.4055   -0.0908 C   0  0  0  0  0  0  0  0  0  0  0  0
  1  2  1  0
  2  3  1  0
  3  4  1  0
  4  5  1  0
  5  6  1  0
  6  7  1  0
  7  8  1  1
  7  9  1  0
  9 10  2  0
 10 11  1  0
 10 12  1  0
 12 13  2  0
 13 14  1  0
 13 15  1  0
 15 16  1  0
 16 17  2  0
 17 18  1  0
 18 19  2  0
 19 20  1  0
 19 21  1  0
 21 22  2  0
 15  7  1  0
 22 16  1  0
M  END
>  <zinc_id>  (555) 
ZINC000013476277

>  <ortholog_name>  (555) 
DRTS_PLAFK

>  <gene_name>  (555) 
DRTS_PLAFK

>  <affinity>  (555) 
5.48

>  <chembldocid>  (555) 
17662

>  <title>  (555) 
None

>  <reference.pubmed_id>  (555) 
14736247

>  <reference.doi>  (555) 
None

>  <reference.chembl_id>  (555) 
CHEMBL1138835

>  <reference.journal>  (555) 
J. Med. Chem.

>  <reference.year>  (555) 
2004

$$$$

     RDKit          3D

 22 23  0  0  0  0  0  0  0  0999 V2000
   -5.3068   -1.4167    3.8153 C   0  0  0  0  0  0  0  0  0  0  0  0
   -3.9848   -1.4320    3.1184 C   0  0  0  0  0  0  0  0  0  0  0  0
   -3.6501   -0.0946    2.4904 C   0  0  0  0  0  0  0  0  0  0  0  0
   -2.3123   -0.1438    1.7966 C   0  0  0  0  0  0  0  0  0  0  0  0
   -2.3349   -1.1938    0.7058 C   0  0  0  0  0  0  0  0  0  0  0  0
   -0.9754   -1.1997    0.0469 C   0  0  0  0  0  0  0  0  0  0  0  0
   -0.6870    0.1749   -0.5530 C   0  0  2  0  0  0  0  0  0  0  0  0
   -0.7258    1.1575    0.6160 C   0  0  0  0  0  0  0  0  0  0  0  0
   -1.6946    0.4959   -1.5147 N   0  0  0  0  0  0  0  0  0  0  0  0
   -1.4626    0.7478   -2.7338 C   0  0  0  0  0  0  0  0  0  0  0  0
   -2.5725    1.0597   -3.6090 N   0  0  0  0  0  0  0  0  0  0  0  0
   -0.1386    0.7233   -3.2266 N   0  0  0  0  0  0  0  0  0  0  0  0
    0.8806    0.4536   -2.4968 C   0  0  0  0  0  0  0  0  0  0  0  0
    2.2093    0.4350   -3.0179 N   0  0  0  0  0  0  0  0  0  0  0  0
    0.6326    0.1697   -1.1290 N   0  0  0  0  0  0  0  0  0  0  0  0
    1.7345   -0.1338   -0.2876 C   0  0  0  0  0  0  0  0  0  0  0  0
    2.3537    0.9054    0.3591 C   0  0  0  0  0  0  0  0  0  0  0  0
    3.4145    0.6802    1.1787 C   0  0  0  0  0  0  0  0  0  0  0  0
    3.8853   -0.5799    1.3758 C   0  0  0  0  0  0  0  0  0  0  0  0
    5.2463   -0.9339    2.4181 Cl  0  0  0  0  0  0  0  0  0  0  0  0
    3.2817   -1.6436    0.7381 C   0  0  0  0  0  0  0  0  0  0  0  0
    2.2072   -1.4055   -0.0908 C   0  0  0  0  0  0  0  0  0  0  0  0
  1  2  1  0
  2  3  1  0
  3  4  1  0
  4  5  1  0
  5  6  1  0
  6  7  1  0
  7  8  1  1
  7  9  1  0
  9 10  2  0
 10 11  1  0
 10 12  1  0
 12 13  2  0
 13 14  1  0
 13 15  1  0
 15 16  1  0
 16 17  2  0
 17 18  1  0
 18 19  2  0
 19 20  1  0
 19 21  1  0
 21 22  2  0
 15  7  1  0
 22 16  1  0
M  END
>  <zinc_id>  (556) 
ZINC000013476277

>  <ortholog_name>  (556) 
DRTS_PLAFK

>  <gene_name>  (556) 
DRTS_PLAFK

>  <affinity>  (556) 
7.38

>  <chembldocid>  (556) 
17662

>  <title>  (556) 
None

>  <reference.pubmed_id>  (556) 
14736247

>  <reference.doi>  (556) 
None

>  <reference.chembl_id>  (556) 
CHEMBL1138835

>  <reference.journal>  (556) 
J. Med. Chem.

>  <reference.year>  (556) 
2004

$$$$

     RDKit          3D

 22 23  0  0  0  0  0  0  0  0999 V2000
   -5.3068   -1.4167    3.8153 C   0  0  0  0  0  0  0  0  0  0  0  0
   -3.9848   -1.4320    3.1184 C   0  0  0  0  0  0  0  0  0  0  0  0
   -3.6501   -0.0946    2.4904 C   0  0  0  0  0  0  0  0  0  0  0  0
   -2.3123   -0.1438    1.7966 C   0  0  0  0  0  0  0  0  0  0  0  0
   -2.3349   -1.1938    0.7058 C   0  0  0  0  0  0  0  0  0  0  0  0
   -0.9754   -1.1997    0.0469 C   0  0  0  0  0  0  0  0  0  0  0  0
   -0.6870    0.1749   -0.5530 C   0  0  2  0  0  0  0  0  0  0  0  0
   -0.7258    1.1575    0.6160 C   0  0  0  0  0  0  0  0  0  0  0  0
   -1.6946    0.4959   -1.5147 N   0  0  0  0  0  0  0  0  0  0  0  0
   -1.4626    0.7478   -2.7338 C   0  0  0  0  0  0  0  0  0  0  0  0
   -2.5725    1.0597   -3.6090 N   0  0  0  0  0  0  0  0  0  0  0  0
   -0.1386    0.7233   -3.2266 N   0  0  0  0  0  0  0  0  0  0  0  0
    0.8806    0.4536   -2.4968 C   0  0  0  0  0  0  0  0  0  0  0  0
    2.2093    0.4350   -3.0179 N   0  0  0  0  0  0  0  0  0  0  0  0
    0.6326    0.1697   -1.1290 N   0  0  0  0  0  0  0  0  0  0  0  0
    1.7345   -0.1338   -0.2876 C   0  0  0  0  0  0  0  0  0  0  0  0
    2.3537    0.9054    0.3591 C   0  0  0  0  0  0  0  0  0  0  0  0
    3.4145    0.6802    1.1787 C   0  0  0  0  0  0  0  0  0  0  0  0
    3.8853   -0.5799    1.3758 C   0  0  0  0  0  0  0  0  0  0  0  0
    5.2463   -0.9339    2.4181 Cl  0  0  0  0  0  0  0  0  0  0  0  0
    3.2817   -1.6436    0.7381 C   0  0  0  0  0  0  0  0  0  0  0  0
    2.2072   -1.4055   -0.0908 C   0  0  0  0  0  0  0  0  0  0  0  0
  1  2  1  0
  2  3  1  0
  3  4  1  0
  4  5  1  0
  5  6  1  0
  6  7  1  0
  7  8  1  1
  7  9  1  0
  9 10  2  0
 10 11  1  0
 10 12  1  0
 12 13  2  0
 13 14  1  0
 13 15  1  0
 15 16  1  0
 16 17  2  0
 17 18  1  0
 18 19  2  0
 19 20  1  0
 19 21  1  0
 21 22  2  0
 15  7  1  0
 22 16  1  0
M  END
>  <zinc_id>  (557) 
ZINC000013476277

>  <ortholog_name>  (557) 
DRTS_PLAFK

>  <gene_name>  (557) 
DRTS_PLAFK

>  <affinity>  (557) 
5.39

>  <chembldocid>  (557) 
17662

>  <title>  (557) 
None

>  <reference.pubmed_id>  (557) 
14736247

>  <reference.doi>  (557) 
None

>  <reference.chembl_id>  (557) 
CHEMBL1138835

>  <reference.journal>  (557) 
J. Med. Chem.

>  <reference.year>  (557) 
2004

$$$$

     RDKit          3D

 22 23  0  0  0  0  0  0  0  0999 V2000
   -5.3068   -1.4167    3.8153 C   0  0  0  0  0  0  0  0  0  0  0  0
   -3.9848   -1.4320    3.1184 C   0  0  0  0  0  0  0  0  0  0  0  0
   -3.6501   -0.0946    2.4904 C   0  0  0  0  0  0  0  0  0  0  0  0
   -2.3123   -0.1438    1.7966 C   0  0  0  0  0  0  0  0  0  0  0  0
   -2.3349   -1.1938    0.7058 C   0  0  0  0  0  0  0  0  0  0  0  0
   -0.9754   -1.1997    0.0469 C   0  0  0  0  0  0  0  0  0  0  0  0
   -0.6870    0.1749   -0.5530 C   0  0  2  0  0  0  0  0  0  0  0  0
   -0.7258    1.1575    0.6160 C   0  0  0  0  0  0  0  0  0  0  0  0
   -1.6946    0.4959   -1.5147 N   0  0  0  0  0  0  0  0  0  0  0  0
   -1.4626    0.7478   -2.7338 C   0  0  0  0  0  0  0  0  0  0  0  0
   -2.5725    1.0597   -3.6090 N   0  0  0  0  0  0  0  0  0  0  0  0
   -0.1386    0.7233   -3.2266 N   0  0  0  0  0  0  0  0  0  0  0  0
    0.8806    0.4536   -2.4968 C   0  0  0  0  0  0  0  0  0  0  0  0
    2.2093    0.4350   -3.0179 N   0  0  0  0  0  0  0  0  0  0  0  0
    0.6326    0.1697   -1.1290 N   0  0  0  0  0  0  0  0  0  0  0  0
    1.7345   -0.1338   -0.2876 C   0  0  0  0  0  0  0  0  0  0  0  0
    2.3537    0.9054    0.3591 C   0  0  0  0  0  0  0  0  0  0  0  0
    3.4145    0.6802    1.1787 C   0  0  0  0  0  0  0  0  0  0  0  0
    3.8853   -0.5799    1.3758 C   0  0  0  0  0  0  0  0  0  0  0  0
    5.2463   -0.9339    2.4181 Cl  0  0  0  0  0  0  0  0  0  0  0  0
    3.2817   -1.6436    0.7381 C   0  0  0  0  0  0  0  0  0  0  0  0
    2.2072   -1.4055   -0.0908 C   0  0  0  0  0  0  0  0  0  0  0  0
  1  2  1  0
  2  3  1  0
  3  4  1  0
  4  5  1  0
  5  6  1  0
  6  7  1  0
  7  8  1  1
  7  9  1  0
  9 10  2  0
 10 11  1  0
 10 12  1  0
 12 13  2  0
 13 14  1  0
 13 15  1  0
 15 16  1  0
 16 17  2  0
 17 18  1  0
 18 19  2  0
 19 20  1  0
 19 21  1  0
 21 22  2  0
 15  7  1  0
 22 16  1  0
M  END
>  <zinc_id>  (558) 
ZINC000013476277

>  <ortholog_name>  (558) 
DRTS_PLAFK

>  <gene_name>  (558) 
DRTS_PLAFK

>  <affinity>  (558) 
5.19

>  <chembldocid>  (558) 
17662

>  <title>  (558) 
None

>  <reference.pubmed_id>  (558) 
14736247

>  <reference.doi>  (558) 
None

>  <reference.chembl_id>  (558) 
CHEMBL1138835

>  <reference.journal>  (558) 
J. Med. Chem.

>  <reference.year>  (558) 
2004

$$$$

     RDKit          3D

 22 23  0  0  0  0  0  0  0  0999 V2000
   -5.3068   -1.4167    3.8153 C   0  0  0  0  0  0  0  0  0  0  0  0
   -3.9848   -1.4320    3.1184 C   0  0  0  0  0  0  0  0  0  0  0  0
   -3.6501   -0.0946    2.4904 C   0  0  0  0  0  0  0  0  0  0  0  0
   -2.3123   -0.1438    1.7966 C   0  0  0  0  0  0  0  0  0  0  0  0
   -2.3349   -1.1938    0.7058 C   0  0  0  0  0  0  0  0  0  0  0  0
   -0.9754   -1.1997    0.0469 C   0  0  0  0  0  0  0  0  0  0  0  0
   -0.6870    0.1749   -0.5530 C   0  0  2  0  0  0  0  0  0  0  0  0
   -0.7258    1.1575    0.6160 C   0  0  0  0  0  0  0  0  0  0  0  0
   -1.6946    0.4959   -1.5147 N   0  0  0  0  0  0  0  0  0  0  0  0
   -1.4626    0.7478   -2.7338 C   0  0  0  0  0  0  0  0  0  0  0  0
   -2.5725    1.0597   -3.6090 N   0  0  0  0  0  0  0  0  0  0  0  0
   -0.1386    0.7233   -3.2266 N   0  0  0  0  0  0  0  0  0  0  0  0
    0.8806    0.4536   -2.4968 C   0  0  0  0  0  0  0  0  0  0  0  0
    2.2093    0.4350   -3.0179 N   0  0  0  0  0  0  0  0  0  0  0  0
    0.6326    0.1697   -1.1290 N   0  0  0  0  0  0  0  0  0  0  0  0
    1.7345   -0.1338   -0.2876 C   0  0  0  0  0  0  0  0  0  0  0  0
    2.3537    0.9054    0.3591 C   0  0  0  0  0  0  0  0  0  0  0  0
    3.4145    0.6802    1.1787 C   0  0  0  0  0  0  0  0  0  0  0  0
    3.8853   -0.5799    1.3758 C   0  0  0  0  0  0  0  0  0  0  0  0
    5.2463   -0.9339    2.4181 Cl  0  0  0  0  0  0  0  0  0  0  0  0
    3.2817   -1.6436    0.7381 C   0  0  0  0  0  0  0  0  0  0  0  0
    2.2072   -1.4055   -0.0908 C   0  0  0  0  0  0  0  0  0  0  0  0
  1  2  1  0
  2  3  1  0
  3  4  1  0
  4  5  1  0
  5  6  1  0
  6  7  1  0
  7  8  1  1
  7  9  1  0
  9 10  2  0
 10 11  1  0
 10 12  1  0
 12 13  2  0
 13 14  1  0
 13 15  1  0
 15 16  1  0
 16 17  2  0
 17 18  1  0
 18 19  2  0
 19 20  1  0
 19 21  1  0
 21 22  2  0
 15  7  1  0
 22 16  1  0
M  END
>  <zinc_id>  (559) 
ZINC000013476277

>  <ortholog_name>  (559) 
DRTS_PLAFK

>  <gene_name>  (559) 
DRTS_PLAFK

>  <affinity>  (559) 
7.16

>  <chembldocid>  (559) 
17662

>  <title>  (559) 
None

>  <reference.pubmed_id>  (559) 
14736247

>  <reference.doi>  (559) 
None

>  <reference.chembl_id>  (559) 
CHEMBL1138835

>  <reference.journal>  (559) 
J. Med. Chem.

>  <reference.year>  (559) 
2004

$$$$

     RDKit          3D

 22 23  0  0  0  0  0  0  0  0999 V2000
   -5.3068   -1.4167    3.8153 C   0  0  0  0  0  0  0  0  0  0  0  0
   -3.9848   -1.4320    3.1184 C   0  0  0  0  0  0  0  0  0  0  0  0
   -3.6501   -0.0946    2.4904 C   0  0  0  0  0  0  0  0  0  0  0  0
   -2.3123   -0.1438    1.7966 C   0  0  0  0  0  0  0  0  0  0  0  0
   -2.3349   -1.1938    0.7058 C   0  0  0  0  0  0  0  0  0  0  0  0
   -0.9754   -1.1997    0.0469 C   0  0  0  0  0  0  0  0  0  0  0  0
   -0.6870    0.1749   -0.5530 C   0  0  2  0  0  0  0  0  0  0  0  0
   -0.7258    1.1575    0.6160 C   0  0  0  0  0  0  0  0  0  0  0  0
   -1.6946    0.4959   -1.5147 N   0  0  0  0  0  0  0  0  0  0  0  0
   -1.4626    0.7478   -2.7338 C   0  0  0  0  0  0  0  0  0  0  0  0
   -2.5725    1.0597   -3.6090 N   0  0  0  0  0  0  0  0  0  0  0  0
   -0.1386    0.7233   -3.2266 N   0  0  0  0  0  0  0  0  0  0  0  0
    0.8806    0.4536   -2.4968 C   0  0  0  0  0  0  0  0  0  0  0  0
    2.2093    0.4350   -3.0179 N   0  0  0  0  0  0  0  0  0  0  0  0
    0.6326    0.1697   -1.1290 N   0  0  0  0  0  0  0  0  0  0  0  0
    1.7345   -0.1338   -0.2876 C   0  0  0  0  0  0  0  0  0  0  0  0
    2.3537    0.9054    0.3591 C   0  0  0  0  0  0  0  0  0  0  0  0
    3.4145    0.6802    1.1787 C   0  0  0  0  0  0  0  0  0  0  0  0
    3.8853   -0.5799    1.3758 C   0  0  0  0  0  0  0  0  0  0  0  0
    5.2463   -0.9339    2.4181 Cl  0  0  0  0  0  0  0  0  0  0  0  0
    3.2817   -1.6436    0.7381 C   0  0  0  0  0  0  0  0  0  0  0  0
    2.2072   -1.4055   -0.0908 C   0  0  0  0  0  0  0  0  0  0  0  0
  1  2  1  0
  2  3  1  0
  3  4  1  0
  4  5  1  0
  5  6  1  0
  6  7  1  0
  7  8  1  1
  7  9  1  0
  9 10  2  0
 10 11  1  0
 10 12  1  0
 12 13  2  0
 13 14  1  0
 13 15  1  0
 15 16  1  0
 16 17  2  0
 17 18  1  0
 18 19  2  0
 19 20  1  0
 19 21  1  0
 21 22  2  0
 15  7  1  0
 22 16  1  0
M  END
>  <zinc_id>  (560) 
ZINC000013476277

>  <ortholog_name>  (560) 
DRTS_PLAFK

>  <gene_name>  (560) 
DRTS_PLAFK

>  <affinity>  (560) 
6.02

>  <chembldocid>  (560) 
17662

>  <title>  (560) 
None

>  <reference.pubmed_id>  (560) 
14736247

>  <reference.doi>  (560) 
None

>  <reference.chembl_id>  (560) 
CHEMBL1138835

>  <reference.journal>  (560) 
J. Med. Chem.

>  <reference.year>  (560) 
2004

$$$$

     RDKit          3D

 21 23  0  0  0  0  0  0  0  0999 V2000
   -2.5336   -3.8804   -0.1787 N   0  0  0  0  0  0  0  0  0  0  0  0
   -1.5362   -2.8395   -0.1925 C   0  0  0  0  0  0  0  0  0  0  0  0
   -1.6470   -1.9779   -1.0414 N   0  0  0  0  0  0  0  0  0  0  0  0
   -0.7052   -0.7810   -1.2407 C   0  0  1  0  0  0  0  0  0  0  0  0
   -1.6018    0.3306   -0.5363 C   0  0  0  0  0  0  0  0  0  0  0  0
   -2.2136    0.1315    0.6295 C   0  0  0  0  0  0  0  0  0  0  0  0
   -2.9782    1.1563    1.1754 C   0  0  0  0  0  0  0  0  0  0  0  0
   -3.1150    2.3604    0.5427 C   0  0  0  0  0  0  0  0  0  0  0  0
   -2.4913    2.5791   -0.6571 C   0  0  0  0  0  0  0  0  0  0  0  0
   -1.7362    1.5472   -1.1819 C   0  0  0  0  0  0  0  0  0  0  0  0
    0.3320   -0.9564   -0.1603 N   0  0  0  0  0  0  0  0  0  0  0  0
    1.3320    0.0324   -0.1264 C   0  0  0  0  0  0  0  0  0  0  0  0
    2.3371   -0.0185    0.8168 C   0  0  0  0  0  0  0  0  0  0  0  0
    3.3433    0.9164    0.9032 C   0  0  0  0  0  0  0  0  0  0  0  0
    3.3720    1.9570    0.0232 C   0  0  0  0  0  0  0  0  0  0  0  0
    4.7835    3.2299    0.1779 Br  0  0  0  0  0  0  0  0  0  0  0  0
    2.4008    2.0585   -0.9338 C   0  0  0  0  0  0  0  0  0  0  0  0
    1.4157    1.1090   -0.9886 C   0  0  0  0  0  0  0  0  0  0  0  0
    0.3520   -1.9884    0.7557 C   0  0  0  0  0  0  0  0  0  0  0  0
    1.4056   -2.0440    1.7465 N   0  0  0  0  0  0  0  0  0  0  0  0
   -0.5159   -2.9222    0.7921 N   0  0  0  0  0  0  0  0  0  0  0  0
  1  2  1  0
  2  3  2  0
  3  4  1  0
  4  5  1  1
  5  6  2  0
  6  7  1  0
  7  8  2  0
  8  9  1  0
  9 10  2  0
  4 11  1  0
 11 12  1  0
 12 13  2  0
 13 14  1  0
 14 15  2  0
 15 16  1  0
 15 17  1  0
 17 18  2  0
 11 19  1  0
 19 20  1  0
 19 21  2  0
 21  2  1  0
 10  5  1  0
 18 12  1  0
M  END
>  <zinc_id>  (561) 
ZINC000013476289

>  <ortholog_name>  (561) 
DRTS_PLAFK

>  <gene_name>  (561) 
DRTS_PLAFK

>  <affinity>  (561) 
8.54

>  <chembldocid>  (561) 
15522

>  <title>  (561) 
None

>  <reference.pubmed_id>  (561) 
10893311

>  <reference.doi>  (561) 
None

>  <reference.chembl_id>  (561) 
CHEMBL1133696

>  <reference.journal>  (561) 
J. Med. Chem.

>  <reference.year>  (561) 
2000

$$$$

     RDKit          3D

 21 23  0  0  0  0  0  0  0  0999 V2000
   -2.5336   -3.8804   -0.1787 N   0  0  0  0  0  0  0  0  0  0  0  0
   -1.5362   -2.8395   -0.1925 C   0  0  0  0  0  0  0  0  0  0  0  0
   -1.6470   -1.9779   -1.0414 N   0  0  0  0  0  0  0  0  0  0  0  0
   -0.7052   -0.7810   -1.2407 C   0  0  1  0  0  0  0  0  0  0  0  0
   -1.6018    0.3306   -0.5363 C   0  0  0  0  0  0  0  0  0  0  0  0
   -2.2136    0.1315    0.6295 C   0  0  0  0  0  0  0  0  0  0  0  0
   -2.9782    1.1563    1.1754 C   0  0  0  0  0  0  0  0  0  0  0  0
   -3.1150    2.3604    0.5427 C   0  0  0  0  0  0  0  0  0  0  0  0
   -2.4913    2.5791   -0.6571 C   0  0  0  0  0  0  0  0  0  0  0  0
   -1.7362    1.5472   -1.1819 C   0  0  0  0  0  0  0  0  0  0  0  0
    0.3320   -0.9564   -0.1603 N   0  0  0  0  0  0  0  0  0  0  0  0
    1.3320    0.0324   -0.1264 C   0  0  0  0  0  0  0  0  0  0  0  0
    2.3371   -0.0185    0.8168 C   0  0  0  0  0  0  0  0  0  0  0  0
    3.3433    0.9164    0.9032 C   0  0  0  0  0  0  0  0  0  0  0  0
    3.3720    1.9570    0.0232 C   0  0  0  0  0  0  0  0  0  0  0  0
    4.7835    3.2299    0.1779 Br  0  0  0  0  0  0  0  0  0  0  0  0
    2.4008    2.0585   -0.9338 C   0  0  0  0  0  0  0  0  0  0  0  0
    1.4157    1.1090   -0.9886 C   0  0  0  0  0  0  0  0  0  0  0  0
    0.3520   -1.9884    0.7557 C   0  0  0  0  0  0  0  0  0  0  0  0
    1.4056   -2.0440    1.7465 N   0  0  0  0  0  0  0  0  0  0  0  0
   -0.5159   -2.9222    0.7921 N   0  0  0  0  0  0  0  0  0  0  0  0
  1  2  1  0
  2  3  2  0
  3  4  1  0
  4  5  1  1
  5  6  2  0
  6  7  1  0
  7  8  2  0
  8  9  1  0
  9 10  2  0
  4 11  1  0
 11 12  1  0
 12 13  2  0
 13 14  1  0
 14 15  2  0
 15 16  1  0
 15 17  1  0
 17 18  2  0
 11 19  1  0
 19 20  1  0
 19 21  2  0
 21  2  1  0
 10  5  1  0
 18 12  1  0
M  END
>  <zinc_id>  (562) 
ZINC000013476289

>  <ortholog_name>  (562) 
DRTS_PLAFK

>  <gene_name>  (562) 
DRTS_PLAFK

>  <affinity>  (562) 
7.05

>  <chembldocid>  (562) 
15522

>  <title>  (562) 
None

>  <reference.pubmed_id>  (562) 
10893311

>  <reference.doi>  (562) 
None

>  <reference.chembl_id>  (562) 
CHEMBL1133696

>  <reference.journal>  (562) 
J. Med. Chem.

>  <reference.year>  (562) 
2000

$$$$

     RDKit          3D

 21 23  0  0  0  0  0  0  0  0999 V2000
   -2.3938   -2.9115    2.6063 N   0  0  0  0  0  0  0  0  0  0  0  0
   -1.4835   -2.1213    1.8113 C   0  0  0  0  0  0  0  0  0  0  0  0
   -1.3522   -0.9609    2.1022 N   0  0  0  0  0  0  0  0  0  0  0  0
   -0.4578    0.1135    1.4235 C   0  0  2  0  0  0  0  0  0  0  0  0
   -1.5688    0.7233    0.4887 C   0  0  0  0  0  0  0  0  0  0  0  0
   -2.7985    1.0077    1.0080 C   0  0  0  0  0  0  0  0  0  0  0  0
   -3.8132    1.5446    0.2157 C   0  0  0  0  0  0  0  0  0  0  0  0
   -3.5480    1.7800   -1.0954 C   0  0  0  0  0  0  0  0  0  0  0  0
   -2.3415    1.5136   -1.6557 C   0  0  0  0  0  0  0  0  0  0  0  0
   -1.3409    0.9700   -0.8172 C   0  0  0  0  0  0  0  0  0  0  0  0
    0.3597   -0.7434    0.3993 N   0  0  0  0  0  0  0  0  0  0  0  0
    1.4399   -0.0076   -0.2131 C   0  0  0  0  0  0  0  0  0  0  0  0
    1.3775    0.6467   -1.4099 C   0  0  0  0  0  0  0  0  0  0  0  0
    2.4481    1.3367   -1.9474 C   0  0  0  0  0  0  0  0  0  0  0  0
    3.6542    1.3959   -1.2830 C   0  0  0  0  0  0  0  0  0  0  0  0
    5.1588    2.3464   -2.0045 Br  0  0  0  0  0  0  0  0  0  0  0  0
    3.7342    0.7422   -0.0763 C   0  0  0  0  0  0  0  0  0  0  0  0
    2.6519    0.0559    0.4473 C   0  0  0  0  0  0  0  0  0  0  0  0
    0.1107   -2.0605    0.1444 C   0  0  0  0  0  0  0  0  0  0  0  0
    0.9033   -2.6386   -0.9320 N   0  0  0  0  0  0  0  0  0  0  0  0
   -0.7398   -2.7329    0.7877 N   0  0  0  0  0  0  0  0  0  0  0  0
  1  2  1  0
  2  3  2  0
  3  4  1  0
  4  5  1  6
  5  6  2  0
  6  7  1  0
  7  8  2  0
  8  9  1  0
  9 10  2  0
  4 11  1  0
 11 12  1  0
 12 13  2  0
 13 14  1  0
 14 15  2  0
 15 16  1  0
 15 17  1  0
 17 18  2  0
 11 19  1  0
 19 20  1  0
 19 21  2  0
 21  2  1  0
 10  5  1  0
 18 12  1  0
M  END
>  <zinc_id>  (563) 
ZINC000013476290

>  <ortholog_name>  (563) 
DRTS_PLAFK

>  <gene_name>  (563) 
DRTS_PLAFK

>  <affinity>  (563) 
8.54

>  <chembldocid>  (563) 
15522

>  <title>  (563) 
None

>  <reference.pubmed_id>  (563) 
10893311

>  <reference.doi>  (563) 
None

>  <reference.chembl_id>  (563) 
CHEMBL1133696

>  <reference.journal>  (563) 
J. Med. Chem.

>  <reference.year>  (563) 
2000

$$$$

     RDKit          3D

 21 23  0  0  0  0  0  0  0  0999 V2000
   -2.3938   -2.9115    2.6063 N   0  0  0  0  0  0  0  0  0  0  0  0
   -1.4835   -2.1213    1.8113 C   0  0  0  0  0  0  0  0  0  0  0  0
   -1.3522   -0.9609    2.1022 N   0  0  0  0  0  0  0  0  0  0  0  0
   -0.4578    0.1135    1.4235 C   0  0  2  0  0  0  0  0  0  0  0  0
   -1.5688    0.7233    0.4887 C   0  0  0  0  0  0  0  0  0  0  0  0
   -2.7985    1.0077    1.0080 C   0  0  0  0  0  0  0  0  0  0  0  0
   -3.8132    1.5446    0.2157 C   0  0  0  0  0  0  0  0  0  0  0  0
   -3.5480    1.7800   -1.0954 C   0  0  0  0  0  0  0  0  0  0  0  0
   -2.3415    1.5136   -1.6557 C   0  0  0  0  0  0  0  0  0  0  0  0
   -1.3409    0.9700   -0.8172 C   0  0  0  0  0  0  0  0  0  0  0  0
    0.3597   -0.7434    0.3993 N   0  0  0  0  0  0  0  0  0  0  0  0
    1.4399   -0.0076   -0.2131 C   0  0  0  0  0  0  0  0  0  0  0  0
    1.3775    0.6467   -1.4099 C   0  0  0  0  0  0  0  0  0  0  0  0
    2.4481    1.3367   -1.9474 C   0  0  0  0  0  0  0  0  0  0  0  0
    3.6542    1.3959   -1.2830 C   0  0  0  0  0  0  0  0  0  0  0  0
    5.1588    2.3464   -2.0045 Br  0  0  0  0  0  0  0  0  0  0  0  0
    3.7342    0.7422   -0.0763 C   0  0  0  0  0  0  0  0  0  0  0  0
    2.6519    0.0559    0.4473 C   0  0  0  0  0  0  0  0  0  0  0  0
    0.1107   -2.0605    0.1444 C   0  0  0  0  0  0  0  0  0  0  0  0
    0.9033   -2.6386   -0.9320 N   0  0  0  0  0  0  0  0  0  0  0  0
   -0.7398   -2.7329    0.7877 N   0  0  0  0  0  0  0  0  0  0  0  0
  1  2  1  0
  2  3  2  0
  3  4  1  0
  4  5  1  6
  5  6  2  0
  6  7  1  0
  7  8  2  0
  8  9  1  0
  9 10  2  0
  4 11  1  0
 11 12  1  0
 12 13  2  0
 13 14  1  0
 14 15  2  0
 15 16  1  0
 15 17  1  0
 17 18  2  0
 11 19  1  0
 19 20  1  0
 19 21  2  0
 21  2  1  0
 10  5  1  0
 18 12  1  0
M  END
>  <zinc_id>  (564) 
ZINC000013476290

>  <ortholog_name>  (564) 
DRTS_PLAFK

>  <gene_name>  (564) 
DRTS_PLAFK

>  <affinity>  (564) 
7.05

>  <chembldocid>  (564) 
15522

>  <title>  (564) 
None

>  <reference.pubmed_id>  (564) 
10893311

>  <reference.doi>  (564) 
None

>  <reference.chembl_id>  (564) 
CHEMBL1133696

>  <reference.journal>  (564) 
J. Med. Chem.

>  <reference.year>  (564) 
2000

$$$$

     RDKit          3D

 22 24  0  0  0  0  0  0  0  0999 V2000
   -3.0627    3.4346   -1.2357 N   0  0  0  0  0  0  0  0  0  0  0  0
   -1.9848    2.5339   -0.8495 C   0  0  0  0  0  0  0  0  0  0  0  0
   -2.0450    1.9749    0.2189 N   0  0  0  0  0  0  0  0  0  0  0  0
   -1.0644    0.9903    0.8499 C   0  0  1  0  0  0  0  0  0  0  0  0
   -1.8429   -0.3256    0.3420 C   0  0  0  0  0  0  0  0  0  0  0  0
   -1.1954   -1.3232   -0.2537 C   0  0  0  0  0  0  0  0  0  0  0  0
   -1.8911   -2.4340   -0.6633 C   0  0  0  0  0  0  0  0  0  0  0  0
   -3.2479   -2.5077   -0.4558 C   0  0  0  0  0  0  0  0  0  0  0  0
   -3.9215   -1.4755    0.1612 C   0  0  0  0  0  0  0  0  0  0  0  0
   -3.1943   -0.3723    0.5614 C   0  0  0  0  0  0  0  0  0  0  0  0
    0.1134    0.9885   -0.1095 N   0  0  0  0  0  0  0  0  0  0  0  0
    1.2606    0.3057    0.3316 C   0  0  0  0  0  0  0  0  0  0  0  0
    2.2185    0.9549    1.1374 C   0  0  0  0  0  0  0  0  0  0  0  0
    3.3592    0.3299    1.5827 C   0  0  0  0  0  0  0  0  0  0  0  0
    3.6494   -0.9801    1.2725 C   0  0  0  0  0  0  0  0  0  0  0  0
    5.1032   -1.7774    1.8397 Cl  0  0  0  0  0  0  0  0  0  0  0  0
    2.7214   -1.6262    0.4855 C   0  0  0  0  0  0  0  0  0  0  0  0
    3.0623   -3.3038    0.0702 Cl  0  0  0  0  0  0  0  0  0  0  0  0
    1.5782   -1.0055    0.0373 C   0  0  0  0  0  0  0  0  0  0  0  0
    0.1025    1.6517   -1.3353 C   0  0  0  0  0  0  0  0  0  0  0  0
    1.1661    1.5692   -2.2774 N   0  0  0  0  0  0  0  0  0  0  0  0
   -0.8849    2.3975   -1.7100 N   0  0  0  0  0  0  0  0  0  0  0  0
  1  2  1  0
  2  3  2  0
  3  4  1  0
  4  5  1  6
  5  6  2  0
  6  7  1  0
  7  8  2  0
  8  9  1  0
  9 10  2  0
  4 11  1  0
 11 12  1  0
 12 13  2  0
 13 14  1  0
 14 15  2  0
 15 16  1  0
 15 17  1  0
 17 18  1  0
 17 19  2  0
 11 20  1  0
 20 21  1  0
 20 22  2  0
 22  2  1  0
 10  5  1  0
 19 12  1  0
M  END
>  <zinc_id>  (565) 
ZINC000013476296

>  <ortholog_name>  (565) 
DRTS_PLAFK

>  <gene_name>  (565) 
DRTS_PLAFK

>  <affinity>  (565) 
8.80

>  <chembldocid>  (565) 
15522

>  <title>  (565) 
None

>  <reference.pubmed_id>  (565) 
10893311

>  <reference.doi>  (565) 
None

>  <reference.chembl_id>  (565) 
CHEMBL1133696

>  <reference.journal>  (565) 
J. Med. Chem.

>  <reference.year>  (565) 
2000

$$$$

     RDKit          3D

 22 24  0  0  0  0  0  0  0  0999 V2000
   -3.0627    3.4346   -1.2357 N   0  0  0  0  0  0  0  0  0  0  0  0
   -1.9848    2.5339   -0.8495 C   0  0  0  0  0  0  0  0  0  0  0  0
   -2.0450    1.9749    0.2189 N   0  0  0  0  0  0  0  0  0  0  0  0
   -1.0644    0.9903    0.8499 C   0  0  1  0  0  0  0  0  0  0  0  0
   -1.8429   -0.3256    0.3420 C   0  0  0  0  0  0  0  0  0  0  0  0
   -1.1954   -1.3232   -0.2537 C   0  0  0  0  0  0  0  0  0  0  0  0
   -1.8911   -2.4340   -0.6633 C   0  0  0  0  0  0  0  0  0  0  0  0
   -3.2479   -2.5077   -0.4558 C   0  0  0  0  0  0  0  0  0  0  0  0
   -3.9215   -1.4755    0.1612 C   0  0  0  0  0  0  0  0  0  0  0  0
   -3.1943   -0.3723    0.5614 C   0  0  0  0  0  0  0  0  0  0  0  0
    0.1134    0.9885   -0.1095 N   0  0  0  0  0  0  0  0  0  0  0  0
    1.2606    0.3057    0.3316 C   0  0  0  0  0  0  0  0  0  0  0  0
    2.2185    0.9549    1.1374 C   0  0  0  0  0  0  0  0  0  0  0  0
    3.3592    0.3299    1.5827 C   0  0  0  0  0  0  0  0  0  0  0  0
    3.6494   -0.9801    1.2725 C   0  0  0  0  0  0  0  0  0  0  0  0
    5.1032   -1.7774    1.8397 Cl  0  0  0  0  0  0  0  0  0  0  0  0
    2.7214   -1.6262    0.4855 C   0  0  0  0  0  0  0  0  0  0  0  0
    3.0623   -3.3038    0.0702 Cl  0  0  0  0  0  0  0  0  0  0  0  0
    1.5782   -1.0055    0.0373 C   0  0  0  0  0  0  0  0  0  0  0  0
    0.1025    1.6517   -1.3353 C   0  0  0  0  0  0  0  0  0  0  0  0
    1.1661    1.5692   -2.2774 N   0  0  0  0  0  0  0  0  0  0  0  0
   -0.8849    2.3975   -1.7100 N   0  0  0  0  0  0  0  0  0  0  0  0
  1  2  1  0
  2  3  2  0
  3  4  1  0
  4  5  1  6
  5  6  2  0
  6  7  1  0
  7  8  2  0
  8  9  1  0
  9 10  2  0
  4 11  1  0
 11 12  1  0
 12 13  2  0
 13 14  1  0
 14 15  2  0
 15 16  1  0
 15 17  1  0
 17 18  1  0
 17 19  2  0
 11 20  1  0
 20 21  1  0
 20 22  2  0
 22  2  1  0
 10  5  1  0
 19 12  1  0
M  END
>  <zinc_id>  (566) 
ZINC000013476296

>  <ortholog_name>  (566) 
DRTS_PLAFK

>  <gene_name>  (566) 
DRTS_PLAFK

>  <affinity>  (566) 
7.96

>  <chembldocid>  (566) 
15522

>  <title>  (566) 
None

>  <reference.pubmed_id>  (566) 
10893311

>  <reference.doi>  (566) 
None

>  <reference.chembl_id>  (566) 
CHEMBL1133696

>  <reference.journal>  (566) 
J. Med. Chem.

>  <reference.year>  (566) 
2000

$$$$

     RDKit          3D

 22 24  0  0  0  0  0  0  0  0999 V2000
   -3.4158   -3.4149   -0.4863 N   0  0  0  0  0  0  0  0  0  0  0  0
   -2.2794   -2.5616   -0.3083 C   0  0  0  0  0  0  0  0  0  0  0  0
   -2.2063   -1.8799    0.6944 N   0  0  0  0  0  0  0  0  0  0  0  0
   -1.0502   -0.8995    1.0531 C   0  0  2  0  0  0  0  0  0  0  0  0
   -1.6986    0.4847    0.6079 C   0  0  0  0  0  0  0  0  0  0  0  0
   -1.5196    1.4675    1.5203 C   0  0  0  0  0  0  0  0  0  0  0  0
   -2.0310    2.7682    1.2900 C   0  0  0  0  0  0  0  0  0  0  0  0
   -2.7029    2.9439    0.1006 C   0  0  0  0  0  0  0  0  0  0  0  0
   -2.8700    1.9346   -0.8043 C   0  0  0  0  0  0  0  0  0  0  0  0
   -2.3493    0.6980   -0.5191 C   0  0  0  0  0  0  0  0  0  0  0  0
   -0.0838   -1.0444   -0.1718 N   0  0  0  0  0  0  0  0  0  0  0  0
    1.0938   -0.2069   -0.0609 C   0  0  0  0  0  0  0  0  0  0  0  0
    1.0949    1.0773   -0.5615 C   0  0  0  0  0  0  0  0  0  0  0  0
    2.2246    1.8959   -0.4611 C   0  0  0  0  0  0  0  0  0  0  0  0
    3.3630    1.4173    0.1486 C   0  0  0  0  0  0  0  0  0  0  0  0
    4.7584    2.4719    0.2557 Cl  0  0  0  0  0  0  0  0  0  0  0  0
    3.3852    0.1363    0.6566 C   0  0  0  0  0  0  0  0  0  0  0  0
    4.8618   -0.4140    1.4200 Cl  0  0  0  0  0  0  0  0  0  0  0  0
    2.2521   -0.6503    0.5425 C   0  0  0  0  0  0  0  0  0  0  0  0
   -0.2629   -1.8382   -1.2424 C   0  0  0  0  0  0  0  0  0  0  0  0
    0.7418   -1.8373   -2.2764 N   0  0  0  0  0  0  0  0  0  0  0  0
   -1.3055   -2.5487   -1.2914 N   0  0  0  0  0  0  0  0  0  0  0  0
  1  2  1  0
  2  3  2  0
  3  4  1  0
  4  5  1  6
  5  6  2  0
  6  7  1  0
  7  8  2  0
  8  9  1  0
  9 10  2  0
  4 11  1  0
 11 12  1  0
 12 13  2  0
 13 14  1  0
 14 15  2  0
 15 16  1  0
 15 17  1  0
 17 18  1  0
 17 19  2  0
 11 20  1  0
 20 21  1  0
 20 22  2  0
 22  2  1  0
 10  5  1  0
 19 12  1  0
M  END
>  <zinc_id>  (567) 
ZINC000013476298

>  <ortholog_name>  (567) 
DRTS_PLAFK

>  <gene_name>  (567) 
DRTS_PLAFK

>  <affinity>  (567) 
8.80

>  <chembldocid>  (567) 
15522

>  <title>  (567) 
None

>  <reference.pubmed_id>  (567) 
10893311

>  <reference.doi>  (567) 
None

>  <reference.chembl_id>  (567) 
CHEMBL1133696

>  <reference.journal>  (567) 
J. Med. Chem.

>  <reference.year>  (567) 
2000

$$$$

     RDKit          3D

 22 24  0  0  0  0  0  0  0  0999 V2000
   -3.4158   -3.4149   -0.4863 N   0  0  0  0  0  0  0  0  0  0  0  0
   -2.2794   -2.5616   -0.3083 C   0  0  0  0  0  0  0  0  0  0  0  0
   -2.2063   -1.8799    0.6944 N   0  0  0  0  0  0  0  0  0  0  0  0
   -1.0502   -0.8995    1.0531 C   0  0  2  0  0  0  0  0  0  0  0  0
   -1.6986    0.4847    0.6079 C   0  0  0  0  0  0  0  0  0  0  0  0
   -1.5196    1.4675    1.5203 C   0  0  0  0  0  0  0  0  0  0  0  0
   -2.0310    2.7682    1.2900 C   0  0  0  0  0  0  0  0  0  0  0  0
   -2.7029    2.9439    0.1006 C   0  0  0  0  0  0  0  0  0  0  0  0
   -2.8700    1.9346   -0.8043 C   0  0  0  0  0  0  0  0  0  0  0  0
   -2.3493    0.6980   -0.5191 C   0  0  0  0  0  0  0  0  0  0  0  0
   -0.0838   -1.0444   -0.1718 N   0  0  0  0  0  0  0  0  0  0  0  0
    1.0938   -0.2069   -0.0609 C   0  0  0  0  0  0  0  0  0  0  0  0
    1.0949    1.0773   -0.5615 C   0  0  0  0  0  0  0  0  0  0  0  0
    2.2246    1.8959   -0.4611 C   0  0  0  0  0  0  0  0  0  0  0  0
    3.3630    1.4173    0.1486 C   0  0  0  0  0  0  0  0  0  0  0  0
    4.7584    2.4719    0.2557 Cl  0  0  0  0  0  0  0  0  0  0  0  0
    3.3852    0.1363    0.6566 C   0  0  0  0  0  0  0  0  0  0  0  0
    4.8618   -0.4140    1.4200 Cl  0  0  0  0  0  0  0  0  0  0  0  0
    2.2521   -0.6503    0.5425 C   0  0  0  0  0  0  0  0  0  0  0  0
   -0.2629   -1.8382   -1.2424 C   0  0  0  0  0  0  0  0  0  0  0  0
    0.7418   -1.8373   -2.2764 N   0  0  0  0  0  0  0  0  0  0  0  0
   -1.3055   -2.5487   -1.2914 N   0  0  0  0  0  0  0  0  0  0  0  0
  1  2  1  0
  2  3  2  0
  3  4  1  0
  4  5  1  6
  5  6  2  0
  6  7  1  0
  7  8  2  0
  8  9  1  0
  9 10  2  0
  4 11  1  0
 11 12  1  0
 12 13  2  0
 13 14  1  0
 14 15  2  0
 15 16  1  0
 15 17  1  0
 17 18  1  0
 17 19  2  0
 11 20  1  0
 20 21  1  0
 20 22  2  0
 22  2  1  0
 10  5  1  0
 19 12  1  0
M  END
>  <zinc_id>  (568) 
ZINC000013476298

>  <ortholog_name>  (568) 
DRTS_PLAFK

>  <gene_name>  (568) 
DRTS_PLAFK

>  <affinity>  (568) 
7.96

>  <chembldocid>  (568) 
15522

>  <title>  (568) 
None

>  <reference.pubmed_id>  (568) 
10893311

>  <reference.doi>  (568) 
None

>  <reference.chembl_id>  (568) 
CHEMBL1133696

>  <reference.journal>  (568) 
J. Med. Chem.

>  <reference.year>  (568) 
2000

$$$$

     RDKit          3D

 16 17  0  0  0  0  0  0  0  0999 V2000
   -1.0771    1.9164    0.8824 C   0  0  0  0  0  0  0  0  0  0  0  0
   -1.1964    1.0994   -0.5511 C   0  0  2  0  0  0  0  0  0  0  0  0
   -2.6592    0.8530   -0.4822 N   0  0  0  0  0  0  0  0  0  0  0  0
   -3.2095   -0.2129   -0.1111 C   0  0  0  0  0  0  0  0  0  0  0  0
   -4.6479   -0.2665   -0.1102 N   0  0  0  0  0  0  0  0  0  0  0  0
   -2.4859   -1.3613    0.3052 N   0  0  0  0  0  0  0  0  0  0  0  0
   -1.2112   -1.2741    0.2903 C   0  0  0  0  0  0  0  0  0  0  0  0
   -0.5272   -2.4678    0.7221 N   0  0  0  0  0  0  0  0  0  0  0  0
   -0.5431   -0.1473   -0.1010 N   0  0  0  0  0  0  0  0  0  0  0  0
    0.9047   -0.1600   -0.0784 C   0  0  0  0  0  0  0  0  0  0  0  0
    1.6214   -1.2432    0.3145 C   0  0  0  0  0  0  0  0  0  0  0  0
    3.0084   -1.1933    0.3141 C   0  0  0  0  0  0  0  0  0  0  0  0
    3.7043   -0.0580   -0.0797 C   0  0  0  0  0  0  0  0  0  0  0  0
    2.9597    1.0376   -0.4774 C   0  0  0  0  0  0  0  0  0  0  0  0
    3.7810    2.5058   -0.9877 Cl  0  0  0  0  0  0  0  0  0  0  0  0
    1.5780    0.9723   -0.4715 C   0  0  0  0  0  0  0  0  0  0  0  0
  2  1  1  1
  2  3  1  0
  3  4  2  0
  4  5  1  0
  4  6  1  0
  6  7  2  0
  7  8  1  0
  7  9  1  0
  9 10  1  0
 10 11  2  0
 11 12  1  0
 12 13  2  0
 13 14  1  0
 14 15  1  0
 14 16  2  0
  9  2  1  0
 16 10  1  0
M  END
>  <zinc_id>  (569) 
ZINC000013488367

>  <ortholog_name>  (569) 
DRTS_PLAFK

>  <gene_name>  (569) 
DRTS_PLAFK

>  <affinity>  (569) 
7.99

>  <chembldocid>  (569) 
15522

>  <title>  (569) 
None

>  <reference.pubmed_id>  (569) 
10893311

>  <reference.doi>  (569) 
None

>  <reference.chembl_id>  (569) 
CHEMBL1133696

>  <reference.journal>  (569) 
J. Med. Chem.

>  <reference.year>  (569) 
2000

$$$$

     RDKit          3D

 16 17  0  0  0  0  0  0  0  0999 V2000
   -1.0771    1.9164    0.8824 C   0  0  0  0  0  0  0  0  0  0  0  0
   -1.1964    1.0994   -0.5511 C   0  0  2  0  0  0  0  0  0  0  0  0
   -2.6592    0.8530   -0.4822 N   0  0  0  0  0  0  0  0  0  0  0  0
   -3.2095   -0.2129   -0.1111 C   0  0  0  0  0  0  0  0  0  0  0  0
   -4.6479   -0.2665   -0.1102 N   0  0  0  0  0  0  0  0  0  0  0  0
   -2.4859   -1.3613    0.3052 N   0  0  0  0  0  0  0  0  0  0  0  0
   -1.2112   -1.2741    0.2903 C   0  0  0  0  0  0  0  0  0  0  0  0
   -0.5272   -2.4678    0.7221 N   0  0  0  0  0  0  0  0  0  0  0  0
   -0.5431   -0.1473   -0.1010 N   0  0  0  0  0  0  0  0  0  0  0  0
    0.9047   -0.1600   -0.0784 C   0  0  0  0  0  0  0  0  0  0  0  0
    1.6214   -1.2432    0.3145 C   0  0  0  0  0  0  0  0  0  0  0  0
    3.0084   -1.1933    0.3141 C   0  0  0  0  0  0  0  0  0  0  0  0
    3.7043   -0.0580   -0.0797 C   0  0  0  0  0  0  0  0  0  0  0  0
    2.9597    1.0376   -0.4774 C   0  0  0  0  0  0  0  0  0  0  0  0
    3.7810    2.5058   -0.9877 Cl  0  0  0  0  0  0  0  0  0  0  0  0
    1.5780    0.9723   -0.4715 C   0  0  0  0  0  0  0  0  0  0  0  0
  2  1  1  1
  2  3  1  0
  3  4  2  0
  4  5  1  0
  4  6  1  0
  6  7  2  0
  7  8  1  0
  7  9  1  0
  9 10  1  0
 10 11  2  0
 11 12  1  0
 12 13  2  0
 13 14  1  0
 14 15  1  0
 14 16  2  0
  9  2  1  0
 16 10  1  0
M  END
>  <zinc_id>  (570) 
ZINC000013488367

>  <ortholog_name>  (570) 
DRTS_PLAFK

>  <gene_name>  (570) 
DRTS_PLAFK

>  <affinity>  (570) 
7.99

>  <chembldocid>  (570) 
17662

>  <title>  (570) 
None

>  <reference.pubmed_id>  (570) 
14736247

>  <reference.doi>  (570) 
None

>  <reference.chembl_id>  (570) 
CHEMBL1138835

>  <reference.journal>  (570) 
J. Med. Chem.

>  <reference.year>  (570) 
2004

$$$$

     RDKit          3D

 16 17  0  0  0  0  0  0  0  0999 V2000
   -1.0771    1.9164    0.8824 C   0  0  0  0  0  0  0  0  0  0  0  0
   -1.1964    1.0994   -0.5511 C   0  0  2  0  0  0  0  0  0  0  0  0
   -2.6592    0.8530   -0.4822 N   0  0  0  0  0  0  0  0  0  0  0  0
   -3.2095   -0.2129   -0.1111 C   0  0  0  0  0  0  0  0  0  0  0  0
   -4.6479   -0.2665   -0.1102 N   0  0  0  0  0  0  0  0  0  0  0  0
   -2.4859   -1.3613    0.3052 N   0  0  0  0  0  0  0  0  0  0  0  0
   -1.2112   -1.2741    0.2903 C   0  0  0  0  0  0  0  0  0  0  0  0
   -0.5272   -2.4678    0.7221 N   0  0  0  0  0  0  0  0  0  0  0  0
   -0.5431   -0.1473   -0.1010 N   0  0  0  0  0  0  0  0  0  0  0  0
    0.9047   -0.1600   -0.0784 C   0  0  0  0  0  0  0  0  0  0  0  0
    1.6214   -1.2432    0.3145 C   0  0  0  0  0  0  0  0  0  0  0  0
    3.0084   -1.1933    0.3141 C   0  0  0  0  0  0  0  0  0  0  0  0
    3.7043   -0.0580   -0.0797 C   0  0  0  0  0  0  0  0  0  0  0  0
    2.9597    1.0376   -0.4774 C   0  0  0  0  0  0  0  0  0  0  0  0
    3.7810    2.5058   -0.9877 Cl  0  0  0  0  0  0  0  0  0  0  0  0
    1.5780    0.9723   -0.4715 C   0  0  0  0  0  0  0  0  0  0  0  0
  2  1  1  1
  2  3  1  0
  3  4  2  0
  4  5  1  0
  4  6  1  0
  6  7  2  0
  7  8  1  0
  7  9  1  0
  9 10  1  0
 10 11  2  0
 11 12  1  0
 12 13  2  0
 13 14  1  0
 14 15  1  0
 14 16  2  0
  9  2  1  0
 16 10  1  0
M  END
>  <zinc_id>  (571) 
ZINC000013488367

>  <ortholog_name>  (571) 
DRTS_PLAFK

>  <gene_name>  (571) 
DRTS_PLAFK

>  <affinity>  (571) 
7.84

>  <chembldocid>  (571) 
17662

>  <title>  (571) 
None

>  <reference.pubmed_id>  (571) 
14736247

>  <reference.doi>  (571) 
None

>  <reference.chembl_id>  (571) 
CHEMBL1138835

>  <reference.journal>  (571) 
J. Med. Chem.

>  <reference.year>  (571) 
2004

$$$$

     RDKit          3D

 16 17  0  0  0  0  0  0  0  0999 V2000
   -1.0771    1.9164    0.8824 C   0  0  0  0  0  0  0  0  0  0  0  0
   -1.1964    1.0994   -0.5511 C   0  0  2  0  0  0  0  0  0  0  0  0
   -2.6592    0.8530   -0.4822 N   0  0  0  0  0  0  0  0  0  0  0  0
   -3.2095   -0.2129   -0.1111 C   0  0  0  0  0  0  0  0  0  0  0  0
   -4.6479   -0.2665   -0.1102 N   0  0  0  0  0  0  0  0  0  0  0  0
   -2.4859   -1.3613    0.3052 N   0  0  0  0  0  0  0  0  0  0  0  0
   -1.2112   -1.2741    0.2903 C   0  0  0  0  0  0  0  0  0  0  0  0
   -0.5272   -2.4678    0.7221 N   0  0  0  0  0  0  0  0  0  0  0  0
   -0.5431   -0.1473   -0.1010 N   0  0  0  0  0  0  0  0  0  0  0  0
    0.9047   -0.1600   -0.0784 C   0  0  0  0  0  0  0  0  0  0  0  0
    1.6214   -1.2432    0.3145 C   0  0  0  0  0  0  0  0  0  0  0  0
    3.0084   -1.1933    0.3141 C   0  0  0  0  0  0  0  0  0  0  0  0
    3.7043   -0.0580   -0.0797 C   0  0  0  0  0  0  0  0  0  0  0  0
    2.9597    1.0376   -0.4774 C   0  0  0  0  0  0  0  0  0  0  0  0
    3.7810    2.5058   -0.9877 Cl  0  0  0  0  0  0  0  0  0  0  0  0
    1.5780    0.9723   -0.4715 C   0  0  0  0  0  0  0  0  0  0  0  0
  2  1  1  1
  2  3  1  0
  3  4  2  0
  4  5  1  0
  4  6  1  0
  6  7  2  0
  7  8  1  0
  7  9  1  0
  9 10  1  0
 10 11  2  0
 11 12  1  0
 12 13  2  0
 13 14  1  0
 14 15  1  0
 14 16  2  0
  9  2  1  0
 16 10  1  0
M  END
>  <zinc_id>  (572) 
ZINC000013488367

>  <ortholog_name>  (572) 
DRTS_PLAFK

>  <gene_name>  (572) 
DRTS_PLAFK

>  <affinity>  (572) 
7.41

>  <chembldocid>  (572) 
15522

>  <title>  (572) 
None

>  <reference.pubmed_id>  (572) 
10893311

>  <reference.doi>  (572) 
None

>  <reference.chembl_id>  (572) 
CHEMBL1133696

>  <reference.journal>  (572) 
J. Med. Chem.

>  <reference.year>  (572) 
2000

$$$$

     RDKit          3D

 16 17  0  0  0  0  0  0  0  0999 V2000
   -1.0771    1.9164    0.8824 C   0  0  0  0  0  0  0  0  0  0  0  0
   -1.1964    1.0994   -0.5511 C   0  0  2  0  0  0  0  0  0  0  0  0
   -2.6592    0.8530   -0.4822 N   0  0  0  0  0  0  0  0  0  0  0  0
   -3.2095   -0.2129   -0.1111 C   0  0  0  0  0  0  0  0  0  0  0  0
   -4.6479   -0.2665   -0.1102 N   0  0  0  0  0  0  0  0  0  0  0  0
   -2.4859   -1.3613    0.3052 N   0  0  0  0  0  0  0  0  0  0  0  0
   -1.2112   -1.2741    0.2903 C   0  0  0  0  0  0  0  0  0  0  0  0
   -0.5272   -2.4678    0.7221 N   0  0  0  0  0  0  0  0  0  0  0  0
   -0.5431   -0.1473   -0.1010 N   0  0  0  0  0  0  0  0  0  0  0  0
    0.9047   -0.1600   -0.0784 C   0  0  0  0  0  0  0  0  0  0  0  0
    1.6214   -1.2432    0.3145 C   0  0  0  0  0  0  0  0  0  0  0  0
    3.0084   -1.1933    0.3141 C   0  0  0  0  0  0  0  0  0  0  0  0
    3.7043   -0.0580   -0.0797 C   0  0  0  0  0  0  0  0  0  0  0  0
    2.9597    1.0376   -0.4774 C   0  0  0  0  0  0  0  0  0  0  0  0
    3.7810    2.5058   -0.9877 Cl  0  0  0  0  0  0  0  0  0  0  0  0
    1.5780    0.9723   -0.4715 C   0  0  0  0  0  0  0  0  0  0  0  0
  2  1  1  1
  2  3  1  0
  3  4  2  0
  4  5  1  0
  4  6  1  0
  6  7  2  0
  7  8  1  0
  7  9  1  0
  9 10  1  0
 10 11  2  0
 11 12  1  0
 12 13  2  0
 13 14  1  0
 14 15  1  0
 14 16  2  0
  9  2  1  0
 16 10  1  0
M  END
>  <zinc_id>  (573) 
ZINC000013488367

>  <ortholog_name>  (573) 
DRTS_PLAFK

>  <gene_name>  (573) 
DRTS_PLAFK

>  <affinity>  (573) 
7.41

>  <chembldocid>  (573) 
17662

>  <title>  (573) 
None

>  <reference.pubmed_id>  (573) 
14736247

>  <reference.doi>  (573) 
None

>  <reference.chembl_id>  (573) 
CHEMBL1138835

>  <reference.journal>  (573) 
J. Med. Chem.

>  <reference.year>  (573) 
2004

$$$$

     RDKit          3D

 16 17  0  0  0  0  0  0  0  0999 V2000
   -1.0771    1.9164    0.8824 C   0  0  0  0  0  0  0  0  0  0  0  0
   -1.1964    1.0994   -0.5511 C   0  0  2  0  0  0  0  0  0  0  0  0
   -2.6592    0.8530   -0.4822 N   0  0  0  0  0  0  0  0  0  0  0  0
   -3.2095   -0.2129   -0.1111 C   0  0  0  0  0  0  0  0  0  0  0  0
   -4.6479   -0.2665   -0.1102 N   0  0  0  0  0  0  0  0  0  0  0  0
   -2.4859   -1.3613    0.3052 N   0  0  0  0  0  0  0  0  0  0  0  0
   -1.2112   -1.2741    0.2903 C   0  0  0  0  0  0  0  0  0  0  0  0
   -0.5272   -2.4678    0.7221 N   0  0  0  0  0  0  0  0  0  0  0  0
   -0.5431   -0.1473   -0.1010 N   0  0  0  0  0  0  0  0  0  0  0  0
    0.9047   -0.1600   -0.0784 C   0  0  0  0  0  0  0  0  0  0  0  0
    1.6214   -1.2432    0.3145 C   0  0  0  0  0  0  0  0  0  0  0  0
    3.0084   -1.1933    0.3141 C   0  0  0  0  0  0  0  0  0  0  0  0
    3.7043   -0.0580   -0.0797 C   0  0  0  0  0  0  0  0  0  0  0  0
    2.9597    1.0376   -0.4774 C   0  0  0  0  0  0  0  0  0  0  0  0
    3.7810    2.5058   -0.9877 Cl  0  0  0  0  0  0  0  0  0  0  0  0
    1.5780    0.9723   -0.4715 C   0  0  0  0  0  0  0  0  0  0  0  0
  2  1  1  1
  2  3  1  0
  3  4  2  0
  4  5  1  0
  4  6  1  0
  6  7  2  0
  7  8  1  0
  7  9  1  0
  9 10  1  0
 10 11  2  0
 11 12  1  0
 12 13  2  0
 13 14  1  0
 14 15  1  0
 14 16  2  0
  9  2  1  0
 16 10  1  0
M  END
>  <zinc_id>  (574) 
ZINC000013488367

>  <ortholog_name>  (574) 
DRTS_PLAFK

>  <gene_name>  (574) 
DRTS_PLAFK

>  <affinity>  (574) 
8.38

>  <chembldocid>  (574) 
17662

>  <title>  (574) 
None

>  <reference.pubmed_id>  (574) 
14736247

>  <reference.doi>  (574) 
None

>  <reference.chembl_id>  (574) 
CHEMBL1138835

>  <reference.journal>  (574) 
J. Med. Chem.

>  <reference.year>  (574) 
2004

$$$$

     RDKit          3D

 16 17  0  0  0  0  0  0  0  0999 V2000
   -1.0771    1.9164    0.8824 C   0  0  0  0  0  0  0  0  0  0  0  0
   -1.1964    1.0994   -0.5511 C   0  0  2  0  0  0  0  0  0  0  0  0
   -2.6592    0.8530   -0.4822 N   0  0  0  0  0  0  0  0  0  0  0  0
   -3.2095   -0.2129   -0.1111 C   0  0  0  0  0  0  0  0  0  0  0  0
   -4.6479   -0.2665   -0.1102 N   0  0  0  0  0  0  0  0  0  0  0  0
   -2.4859   -1.3613    0.3052 N   0  0  0  0  0  0  0  0  0  0  0  0
   -1.2112   -1.2741    0.2903 C   0  0  0  0  0  0  0  0  0  0  0  0
   -0.5272   -2.4678    0.7221 N   0  0  0  0  0  0  0  0  0  0  0  0
   -0.5431   -0.1473   -0.1010 N   0  0  0  0  0  0  0  0  0  0  0  0
    0.9047   -0.1600   -0.0784 C   0  0  0  0  0  0  0  0  0  0  0  0
    1.6214   -1.2432    0.3145 C   0  0  0  0  0  0  0  0  0  0  0  0
    3.0084   -1.1933    0.3141 C   0  0  0  0  0  0  0  0  0  0  0  0
    3.7043   -0.0580   -0.0797 C   0  0  0  0  0  0  0  0  0  0  0  0
    2.9597    1.0376   -0.4774 C   0  0  0  0  0  0  0  0  0  0  0  0
    3.7810    2.5058   -0.9877 Cl  0  0  0  0  0  0  0  0  0  0  0  0
    1.5780    0.9723   -0.4715 C   0  0  0  0  0  0  0  0  0  0  0  0
  2  1  1  1
  2  3  1  0
  3  4  2  0
  4  5  1  0
  4  6  1  0
  6  7  2  0
  7  8  1  0
  7  9  1  0
  9 10  1  0
 10 11  2  0
 11 12  1  0
 12 13  2  0
 13 14  1  0
 14 15  1  0
 14 16  2  0
  9  2  1  0
 16 10  1  0
M  END
>  <zinc_id>  (575) 
ZINC000013488367

>  <ortholog_name>  (575) 
DRTS_PLAFK

>  <gene_name>  (575) 
DRTS_PLAFK

>  <affinity>  (575) 
8.00

>  <chembldocid>  (575) 
17662

>  <title>  (575) 
None

>  <reference.pubmed_id>  (575) 
14736247

>  <reference.doi>  (575) 
None

>  <reference.chembl_id>  (575) 
CHEMBL1138835

>  <reference.journal>  (575) 
J. Med. Chem.

>  <reference.year>  (575) 
2004

$$$$

     RDKit          3D

 16 17  0  0  0  0  0  0  0  0999 V2000
   -0.6429    1.8724    1.5093 C   0  0  0  0  0  0  0  0  0  0  0  0
   -1.3944    0.3951    1.2118 C   0  0  1  0  0  0  0  0  0  0  0  0
   -2.6671    0.9435    0.7086 N   0  0  0  0  0  0  0  0  0  0  0  0
   -3.0530    1.0664   -0.4707 C   0  0  0  0  0  0  0  0  0  0  0  0
   -4.3701    1.6481   -0.6538 N   0  0  0  0  0  0  0  0  0  0  0  0
   -2.2619    0.6653   -1.5856 N   0  0  0  0  0  0  0  0  0  0  0  0
   -1.1135    0.1649   -1.2674 C   0  0  0  0  0  0  0  0  0  0  0  0
   -0.2030   -0.2864   -2.3081 N   0  0  0  0  0  0  0  0  0  0  0  0
   -0.5818   -0.0188    0.0078 N   0  0  0  0  0  0  0  0  0  0  0  0
    0.7141   -0.5898    0.2009 C   0  0  0  0  0  0  0  0  0  0  0  0
    0.8120   -1.9462    0.3349 C   0  0  0  0  0  0  0  0  0  0  0  0
    2.0622   -2.5358    0.5248 C   0  0  0  0  0  0  0  0  0  0  0  0
    3.2072   -1.7670    0.5797 C   0  0  0  0  0  0  0  0  0  0  0  0
    3.1171   -0.4153    0.4470 C   0  0  0  0  0  0  0  0  0  0  0  0
    4.4989    0.6637    0.4995 Cl  0  0  0  0  0  0  0  0  0  0  0  0
    1.8762    0.1398    0.2612 C   0  0  0  0  0  0  0  0  0  0  0  0
  2  1  1  6
  2  3  1  0
  3  4  2  0
  4  5  1  0
  4  6  1  0
  6  7  2  0
  7  8  1  0
  7  9  1  0
  9 10  1  0
 10 11  2  0
 11 12  1  0
 12 13  2  0
 13 14  1  0
 14 15  1  0
 14 16  2  0
  9  2  1  0
 16 10  1  0
M  END
>  <zinc_id>  (576) 
ZINC000013488368

>  <ortholog_name>  (576) 
DRTS_PLAFK

>  <gene_name>  (576) 
DRTS_PLAFK

>  <affinity>  (576) 
7.99

>  <chembldocid>  (576) 
15522

>  <title>  (576) 
None

>  <reference.pubmed_id>  (576) 
10893311

>  <reference.doi>  (576) 
None

>  <reference.chembl_id>  (576) 
CHEMBL1133696

>  <reference.journal>  (576) 
J. Med. Chem.

>  <reference.year>  (576) 
2000

$$$$

     RDKit          3D

 16 17  0  0  0  0  0  0  0  0999 V2000
   -0.6429    1.8724    1.5093 C   0  0  0  0  0  0  0  0  0  0  0  0
   -1.3944    0.3951    1.2118 C   0  0  1  0  0  0  0  0  0  0  0  0
   -2.6671    0.9435    0.7086 N   0  0  0  0  0  0  0  0  0  0  0  0
   -3.0530    1.0664   -0.4707 C   0  0  0  0  0  0  0  0  0  0  0  0
   -4.3701    1.6481   -0.6538 N   0  0  0  0  0  0  0  0  0  0  0  0
   -2.2619    0.6653   -1.5856 N   0  0  0  0  0  0  0  0  0  0  0  0
   -1.1135    0.1649   -1.2674 C   0  0  0  0  0  0  0  0  0  0  0  0
   -0.2030   -0.2864   -2.3081 N   0  0  0  0  0  0  0  0  0  0  0  0
   -0.5818   -0.0188    0.0078 N   0  0  0  0  0  0  0  0  0  0  0  0
    0.7141   -0.5898    0.2009 C   0  0  0  0  0  0  0  0  0  0  0  0
    0.8120   -1.9462    0.3349 C   0  0  0  0  0  0  0  0  0  0  0  0
    2.0622   -2.5358    0.5248 C   0  0  0  0  0  0  0  0  0  0  0  0
    3.2072   -1.7670    0.5797 C   0  0  0  0  0  0  0  0  0  0  0  0
    3.1171   -0.4153    0.4470 C   0  0  0  0  0  0  0  0  0  0  0  0
    4.4989    0.6637    0.4995 Cl  0  0  0  0  0  0  0  0  0  0  0  0
    1.8762    0.1398    0.2612 C   0  0  0  0  0  0  0  0  0  0  0  0
  2  1  1  6
  2  3  1  0
  3  4  2  0
  4  5  1  0
  4  6  1  0
  6  7  2  0
  7  8  1  0
  7  9  1  0
  9 10  1  0
 10 11  2  0
 11 12  1  0
 12 13  2  0
 13 14  1  0
 14 15  1  0
 14 16  2  0
  9  2  1  0
 16 10  1  0
M  END
>  <zinc_id>  (577) 
ZINC000013488368

>  <ortholog_name>  (577) 
DRTS_PLAFK

>  <gene_name>  (577) 
DRTS_PLAFK

>  <affinity>  (577) 
7.99

>  <chembldocid>  (577) 
17662

>  <title>  (577) 
None

>  <reference.pubmed_id>  (577) 
14736247

>  <reference.doi>  (577) 
None

>  <reference.chembl_id>  (577) 
CHEMBL1138835

>  <reference.journal>  (577) 
J. Med. Chem.

>  <reference.year>  (577) 
2004

$$$$

     RDKit          3D

 16 17  0  0  0  0  0  0  0  0999 V2000
   -0.6429    1.8724    1.5093 C   0  0  0  0  0  0  0  0  0  0  0  0
   -1.3944    0.3951    1.2118 C   0  0  1  0  0  0  0  0  0  0  0  0
   -2.6671    0.9435    0.7086 N   0  0  0  0  0  0  0  0  0  0  0  0
   -3.0530    1.0664   -0.4707 C   0  0  0  0  0  0  0  0  0  0  0  0
   -4.3701    1.6481   -0.6538 N   0  0  0  0  0  0  0  0  0  0  0  0
   -2.2619    0.6653   -1.5856 N   0  0  0  0  0  0  0  0  0  0  0  0
   -1.1135    0.1649   -1.2674 C   0  0  0  0  0  0  0  0  0  0  0  0
   -0.2030   -0.2864   -2.3081 N   0  0  0  0  0  0  0  0  0  0  0  0
   -0.5818   -0.0188    0.0078 N   0  0  0  0  0  0  0  0  0  0  0  0
    0.7141   -0.5898    0.2009 C   0  0  0  0  0  0  0  0  0  0  0  0
    0.8120   -1.9462    0.3349 C   0  0  0  0  0  0  0  0  0  0  0  0
    2.0622   -2.5358    0.5248 C   0  0  0  0  0  0  0  0  0  0  0  0
    3.2072   -1.7670    0.5797 C   0  0  0  0  0  0  0  0  0  0  0  0
    3.1171   -0.4153    0.4470 C   0  0  0  0  0  0  0  0  0  0  0  0
    4.4989    0.6637    0.4995 Cl  0  0  0  0  0  0  0  0  0  0  0  0
    1.8762    0.1398    0.2612 C   0  0  0  0  0  0  0  0  0  0  0  0
  2  1  1  6
  2  3  1  0
  3  4  2  0
  4  5  1  0
  4  6  1  0
  6  7  2  0
  7  8  1  0
  7  9  1  0
  9 10  1  0
 10 11  2  0
 11 12  1  0
 12 13  2  0
 13 14  1  0
 14 15  1  0
 14 16  2  0
  9  2  1  0
 16 10  1  0
M  END
>  <zinc_id>  (578) 
ZINC000013488368

>  <ortholog_name>  (578) 
DRTS_PLAFK

>  <gene_name>  (578) 
DRTS_PLAFK

>  <affinity>  (578) 
7.84

>  <chembldocid>  (578) 
17662

>  <title>  (578) 
None

>  <reference.pubmed_id>  (578) 
14736247

>  <reference.doi>  (578) 
None

>  <reference.chembl_id>  (578) 
CHEMBL1138835

>  <reference.journal>  (578) 
J. Med. Chem.

>  <reference.year>  (578) 
2004

$$$$

     RDKit          3D

 16 17  0  0  0  0  0  0  0  0999 V2000
   -0.6429    1.8724    1.5093 C   0  0  0  0  0  0  0  0  0  0  0  0
   -1.3944    0.3951    1.2118 C   0  0  1  0  0  0  0  0  0  0  0  0
   -2.6671    0.9435    0.7086 N   0  0  0  0  0  0  0  0  0  0  0  0
   -3.0530    1.0664   -0.4707 C   0  0  0  0  0  0  0  0  0  0  0  0
   -4.3701    1.6481   -0.6538 N   0  0  0  0  0  0  0  0  0  0  0  0
   -2.2619    0.6653   -1.5856 N   0  0  0  0  0  0  0  0  0  0  0  0
   -1.1135    0.1649   -1.2674 C   0  0  0  0  0  0  0  0  0  0  0  0
   -0.2030   -0.2864   -2.3081 N   0  0  0  0  0  0  0  0  0  0  0  0
   -0.5818   -0.0188    0.0078 N   0  0  0  0  0  0  0  0  0  0  0  0
    0.7141   -0.5898    0.2009 C   0  0  0  0  0  0  0  0  0  0  0  0
    0.8120   -1.9462    0.3349 C   0  0  0  0  0  0  0  0  0  0  0  0
    2.0622   -2.5358    0.5248 C   0  0  0  0  0  0  0  0  0  0  0  0
    3.2072   -1.7670    0.5797 C   0  0  0  0  0  0  0  0  0  0  0  0
    3.1171   -0.4153    0.4470 C   0  0  0  0  0  0  0  0  0  0  0  0
    4.4989    0.6637    0.4995 Cl  0  0  0  0  0  0  0  0  0  0  0  0
    1.8762    0.1398    0.2612 C   0  0  0  0  0  0  0  0  0  0  0  0
  2  1  1  6
  2  3  1  0
  3  4  2  0
  4  5  1  0
  4  6  1  0
  6  7  2  0
  7  8  1  0
  7  9  1  0
  9 10  1  0
 10 11  2  0
 11 12  1  0
 12 13  2  0
 13 14  1  0
 14 15  1  0
 14 16  2  0
  9  2  1  0
 16 10  1  0
M  END
>  <zinc_id>  (579) 
ZINC000013488368

>  <ortholog_name>  (579) 
DRTS_PLAFK

>  <gene_name>  (579) 
DRTS_PLAFK

>  <affinity>  (579) 
7.41

>  <chembldocid>  (579) 
15522

>  <title>  (579) 
None

>  <reference.pubmed_id>  (579) 
10893311

>  <reference.doi>  (579) 
None

>  <reference.chembl_id>  (579) 
CHEMBL1133696

>  <reference.journal>  (579) 
J. Med. Chem.

>  <reference.year>  (579) 
2000

$$$$

     RDKit          3D

 16 17  0  0  0  0  0  0  0  0999 V2000
   -0.6429    1.8724    1.5093 C   0  0  0  0  0  0  0  0  0  0  0  0
   -1.3944    0.3951    1.2118 C   0  0  1  0  0  0  0  0  0  0  0  0
   -2.6671    0.9435    0.7086 N   0  0  0  0  0  0  0  0  0  0  0  0
   -3.0530    1.0664   -0.4707 C   0  0  0  0  0  0  0  0  0  0  0  0
   -4.3701    1.6481   -0.6538 N   0  0  0  0  0  0  0  0  0  0  0  0
   -2.2619    0.6653   -1.5856 N   0  0  0  0  0  0  0  0  0  0  0  0
   -1.1135    0.1649   -1.2674 C   0  0  0  0  0  0  0  0  0  0  0  0
   -0.2030   -0.2864   -2.3081 N   0  0  0  0  0  0  0  0  0  0  0  0
   -0.5818   -0.0188    0.0078 N   0  0  0  0  0  0  0  0  0  0  0  0
    0.7141   -0.5898    0.2009 C   0  0  0  0  0  0  0  0  0  0  0  0
    0.8120   -1.9462    0.3349 C   0  0  0  0  0  0  0  0  0  0  0  0
    2.0622   -2.5358    0.5248 C   0  0  0  0  0  0  0  0  0  0  0  0
    3.2072   -1.7670    0.5797 C   0  0  0  0  0  0  0  0  0  0  0  0
    3.1171   -0.4153    0.4470 C   0  0  0  0  0  0  0  0  0  0  0  0
    4.4989    0.6637    0.4995 Cl  0  0  0  0  0  0  0  0  0  0  0  0
    1.8762    0.1398    0.2612 C   0  0  0  0  0  0  0  0  0  0  0  0
  2  1  1  6
  2  3  1  0
  3  4  2  0
  4  5  1  0
  4  6  1  0
  6  7  2  0
  7  8  1  0
  7  9  1  0
  9 10  1  0
 10 11  2  0
 11 12  1  0
 12 13  2  0
 13 14  1  0
 14 15  1  0
 14 16  2  0
  9  2  1  0
 16 10  1  0
M  END
>  <zinc_id>  (580) 
ZINC000013488368

>  <ortholog_name>  (580) 
DRTS_PLAFK

>  <gene_name>  (580) 
DRTS_PLAFK

>  <affinity>  (580) 
7.41

>  <chembldocid>  (580) 
17662

>  <title>  (580) 
None

>  <reference.pubmed_id>  (580) 
14736247

>  <reference.doi>  (580) 
None

>  <reference.chembl_id>  (580) 
CHEMBL1138835

>  <reference.journal>  (580) 
J. Med. Chem.

>  <reference.year>  (580) 
2004

$$$$

     RDKit          3D

 16 17  0  0  0  0  0  0  0  0999 V2000
   -0.6429    1.8724    1.5093 C   0  0  0  0  0  0  0  0  0  0  0  0
   -1.3944    0.3951    1.2118 C   0  0  1  0  0  0  0  0  0  0  0  0
   -2.6671    0.9435    0.7086 N   0  0  0  0  0  0  0  0  0  0  0  0
   -3.0530    1.0664   -0.4707 C   0  0  0  0  0  0  0  0  0  0  0  0
   -4.3701    1.6481   -0.6538 N   0  0  0  0  0  0  0  0  0  0  0  0
   -2.2619    0.6653   -1.5856 N   0  0  0  0  0  0  0  0  0  0  0  0
   -1.1135    0.1649   -1.2674 C   0  0  0  0  0  0  0  0  0  0  0  0
   -0.2030   -0.2864   -2.3081 N   0  0  0  0  0  0  0  0  0  0  0  0
   -0.5818   -0.0188    0.0078 N   0  0  0  0  0  0  0  0  0  0  0  0
    0.7141   -0.5898    0.2009 C   0  0  0  0  0  0  0  0  0  0  0  0
    0.8120   -1.9462    0.3349 C   0  0  0  0  0  0  0  0  0  0  0  0
    2.0622   -2.5358    0.5248 C   0  0  0  0  0  0  0  0  0  0  0  0
    3.2072   -1.7670    0.5797 C   0  0  0  0  0  0  0  0  0  0  0  0
    3.1171   -0.4153    0.4470 C   0  0  0  0  0  0  0  0  0  0  0  0
    4.4989    0.6637    0.4995 Cl  0  0  0  0  0  0  0  0  0  0  0  0
    1.8762    0.1398    0.2612 C   0  0  0  0  0  0  0  0  0  0  0  0
  2  1  1  6
  2  3  1  0
  3  4  2  0
  4  5  1  0
  4  6  1  0
  6  7  2  0
  7  8  1  0
  7  9  1  0
  9 10  1  0
 10 11  2  0
 11 12  1  0
 12 13  2  0
 13 14  1  0
 14 15  1  0
 14 16  2  0
  9  2  1  0
 16 10  1  0
M  END
>  <zinc_id>  (581) 
ZINC000013488368

>  <ortholog_name>  (581) 
DRTS_PLAFK

>  <gene_name>  (581) 
DRTS_PLAFK

>  <affinity>  (581) 
8.38

>  <chembldocid>  (581) 
17662

>  <title>  (581) 
None

>  <reference.pubmed_id>  (581) 
14736247

>  <reference.doi>  (581) 
None

>  <reference.chembl_id>  (581) 
CHEMBL1138835

>  <reference.journal>  (581) 
J. Med. Chem.

>  <reference.year>  (581) 
2004

$$$$

     RDKit          3D

 16 17  0  0  0  0  0  0  0  0999 V2000
   -0.6429    1.8724    1.5093 C   0  0  0  0  0  0  0  0  0  0  0  0
   -1.3944    0.3951    1.2118 C   0  0  1  0  0  0  0  0  0  0  0  0
   -2.6671    0.9435    0.7086 N   0  0  0  0  0  0  0  0  0  0  0  0
   -3.0530    1.0664   -0.4707 C   0  0  0  0  0  0  0  0  0  0  0  0
   -4.3701    1.6481   -0.6538 N   0  0  0  0  0  0  0  0  0  0  0  0
   -2.2619    0.6653   -1.5856 N   0  0  0  0  0  0  0  0  0  0  0  0
   -1.1135    0.1649   -1.2674 C   0  0  0  0  0  0  0  0  0  0  0  0
   -0.2030   -0.2864   -2.3081 N   0  0  0  0  0  0  0  0  0  0  0  0
   -0.5818   -0.0188    0.0078 N   0  0  0  0  0  0  0  0  0  0  0  0
    0.7141   -0.5898    0.2009 C   0  0  0  0  0  0  0  0  0  0  0  0
    0.8120   -1.9462    0.3349 C   0  0  0  0  0  0  0  0  0  0  0  0
    2.0622   -2.5358    0.5248 C   0  0  0  0  0  0  0  0  0  0  0  0
    3.2072   -1.7670    0.5797 C   0  0  0  0  0  0  0  0  0  0  0  0
    3.1171   -0.4153    0.4470 C   0  0  0  0  0  0  0  0  0  0  0  0
    4.4989    0.6637    0.4995 Cl  0  0  0  0  0  0  0  0  0  0  0  0
    1.8762    0.1398    0.2612 C   0  0  0  0  0  0  0  0  0  0  0  0
  2  1  1  6
  2  3  1  0
  3  4  2  0
  4  5  1  0
  4  6  1  0
  6  7  2  0
  7  8  1  0
  7  9  1  0
  9 10  1  0
 10 11  2  0
 11 12  1  0
 12 13  2  0
 13 14  1  0
 14 15  1  0
 14 16  2  0
  9  2  1  0
 16 10  1  0
M  END
>  <zinc_id>  (582) 
ZINC000013488368

>  <ortholog_name>  (582) 
DRTS_PLAFK

>  <gene_name>  (582) 
DRTS_PLAFK

>  <affinity>  (582) 
8.00

>  <chembldocid>  (582) 
17662

>  <title>  (582) 
None

>  <reference.pubmed_id>  (582) 
14736247

>  <reference.doi>  (582) 
None

>  <reference.chembl_id>  (582) 
CHEMBL1138835

>  <reference.journal>  (582) 
J. Med. Chem.

>  <reference.year>  (582) 
2004

$$$$

     RDKit          3D

 21 22  0  0  0  0  0  0  0  0999 V2000
    6.3231    2.1009   -1.0799 C   0  0  0  0  0  0  0  0  0  0  0  0
    5.0768    1.6362   -0.3878 C   0  0  0  0  0  0  0  0  0  0  0  0
    5.0946    0.1393   -0.2254 C   0  0  0  0  0  0  0  0  0  0  0  0
    3.8540   -0.3660    0.4673 C   0  0  0  0  0  0  0  0  0  0  0  0
    3.8845   -1.8771    0.6257 C   0  0  0  0  0  0  0  0  0  0  0  0
    2.6846   -2.2943    1.2862 O   0  0  0  0  0  0  0  0  0  0  0  0
    1.4724   -1.9944    0.6501 C   0  0  0  0  0  0  0  0  0  0  0  0
    0.2633   -2.3514    1.2035 C   0  0  0  0  0  0  0  0  0  0  0  0
   -0.9101   -2.0507    0.5692 C   0  0  0  0  0  0  0  0  0  0  0  0
   -0.9616   -1.3867   -0.6367 C   0  0  0  0  0  0  0  0  0  0  0  0
   -2.2663   -1.0857   -1.2766 C   0  0  0  0  0  0  0  0  0  0  0  0
   -2.7233    0.2708   -0.8097 C   0  0  0  0  0  0  0  0  0  0  0  0
   -2.6299    1.3754   -1.6140 C   0  0  0  0  0  0  0  0  0  0  0  0
   -3.0609    2.5441   -1.1108 N   0  0  0  0  0  0  0  0  0  0  0  0
   -3.5685    2.6515    0.1301 C   0  0  0  0  0  0  0  0  0  0  0  0
   -4.0094    3.9396    0.5965 N   0  0  0  0  0  0  0  0  0  0  0  0
   -3.6500    1.5603    0.8968 N   0  0  0  0  0  0  0  0  0  0  0  0
   -3.2394    0.3572    0.4641 C   0  0  0  0  0  0  0  0  0  0  0  0
   -3.3252   -0.8131    1.2792 N   0  0  0  0  0  0  0  0  0  0  0  0
    0.2522   -1.0279   -1.1935 C   0  0  0  0  0  0  0  0  0  0  0  0
    1.4391   -1.3278   -0.5595 C   0  0  0  0  0  0  0  0  0  0  0  0
  1  2  1  0
  2  3  1  0
  3  4  1  0
  4  5  1  0
  5  6  1  0
  6  7  1  0
  7  8  2  0
  8  9  1  0
  9 10  2  0
 10 11  1  0
 11 12  1  0
 12 13  2  0
 13 14  1  0
 14 15  2  0
 15 16  1  0
 15 17  1  0
 17 18  2  0
 18 19  1  0
 10 20  1  0
 20 21  2  0
 21  7  1  0
 18 12  1  0
M  END
>  <zinc_id>  (583) 
ZINC000013532846

>  <ortholog_name>  (583) 
DRTS_PLAFK

>  <gene_name>  (583) 
DRTS_PLAFK

>  <affinity>  (583) 
6.86

>  <chembldocid>  (583) 
17636

>  <title>  (583) 
None

>  <reference.pubmed_id>  (583) 
14711307

>  <reference.doi>  (583) 
None

>  <reference.chembl_id>  (583) 
CHEMBL1148379

>  <reference.journal>  (583) 
J. Med. Chem.

>  <reference.year>  (583) 
2004

$$$$

     RDKit          3D

 21 22  0  0  0  0  0  0  0  0999 V2000
    6.3231    2.1009   -1.0799 C   0  0  0  0  0  0  0  0  0  0  0  0
    5.0768    1.6362   -0.3878 C   0  0  0  0  0  0  0  0  0  0  0  0
    5.0946    0.1393   -0.2254 C   0  0  0  0  0  0  0  0  0  0  0  0
    3.8540   -0.3660    0.4673 C   0  0  0  0  0  0  0  0  0  0  0  0
    3.8845   -1.8771    0.6257 C   0  0  0  0  0  0  0  0  0  0  0  0
    2.6846   -2.2943    1.2862 O   0  0  0  0  0  0  0  0  0  0  0  0
    1.4724   -1.9944    0.6501 C   0  0  0  0  0  0  0  0  0  0  0  0
    0.2633   -2.3514    1.2035 C   0  0  0  0  0  0  0  0  0  0  0  0
   -0.9101   -2.0507    0.5692 C   0  0  0  0  0  0  0  0  0  0  0  0
   -0.9616   -1.3867   -0.6367 C   0  0  0  0  0  0  0  0  0  0  0  0
   -2.2663   -1.0857   -1.2766 C   0  0  0  0  0  0  0  0  0  0  0  0
   -2.7233    0.2708   -0.8097 C   0  0  0  0  0  0  0  0  0  0  0  0
   -2.6299    1.3754   -1.6140 C   0  0  0  0  0  0  0  0  0  0  0  0
   -3.0609    2.5441   -1.1108 N   0  0  0  0  0  0  0  0  0  0  0  0
   -3.5685    2.6515    0.1301 C   0  0  0  0  0  0  0  0  0  0  0  0
   -4.0094    3.9396    0.5965 N   0  0  0  0  0  0  0  0  0  0  0  0
   -3.6500    1.5603    0.8968 N   0  0  0  0  0  0  0  0  0  0  0  0
   -3.2394    0.3572    0.4641 C   0  0  0  0  0  0  0  0  0  0  0  0
   -3.3252   -0.8131    1.2792 N   0  0  0  0  0  0  0  0  0  0  0  0
    0.2522   -1.0279   -1.1935 C   0  0  0  0  0  0  0  0  0  0  0  0
    1.4391   -1.3278   -0.5595 C   0  0  0  0  0  0  0  0  0  0  0  0
  1  2  1  0
  2  3  1  0
  3  4  1  0
  4  5  1  0
  5  6  1  0
  6  7  1  0
  7  8  2  0
  8  9  1  0
  9 10  2  0
 10 11  1  0
 11 12  1  0
 12 13  2  0
 13 14  1  0
 14 15  2  0
 15 16  1  0
 15 17  1  0
 17 18  2  0
 18 19  1  0
 10 20  1  0
 20 21  2  0
 21  7  1  0
 18 12  1  0
M  END
>  <zinc_id>  (584) 
ZINC000013532846

>  <ortholog_name>  (584) 
DRTS_PLAFK

>  <gene_name>  (584) 
DRTS_PLAFK

>  <affinity>  (584) 
6.27

>  <chembldocid>  (584) 
17636

>  <title>  (584) 
None

>  <reference.pubmed_id>  (584) 
14711307

>  <reference.doi>  (584) 
None

>  <reference.chembl_id>  (584) 
CHEMBL1148379

>  <reference.journal>  (584) 
J. Med. Chem.

>  <reference.year>  (584) 
2004

$$$$

     RDKit          3D

 21 22  0  0  0  0  0  0  0  0999 V2000
    6.3231    2.1009   -1.0799 C   0  0  0  0  0  0  0  0  0  0  0  0
    5.0768    1.6362   -0.3878 C   0  0  0  0  0  0  0  0  0  0  0  0
    5.0946    0.1393   -0.2254 C   0  0  0  0  0  0  0  0  0  0  0  0
    3.8540   -0.3660    0.4673 C   0  0  0  0  0  0  0  0  0  0  0  0
    3.8845   -1.8771    0.6257 C   0  0  0  0  0  0  0  0  0  0  0  0
    2.6846   -2.2943    1.2862 O   0  0  0  0  0  0  0  0  0  0  0  0
    1.4724   -1.9944    0.6501 C   0  0  0  0  0  0  0  0  0  0  0  0
    0.2633   -2.3514    1.2035 C   0  0  0  0  0  0  0  0  0  0  0  0
   -0.9101   -2.0507    0.5692 C   0  0  0  0  0  0  0  0  0  0  0  0
   -0.9616   -1.3867   -0.6367 C   0  0  0  0  0  0  0  0  0  0  0  0
   -2.2663   -1.0857   -1.2766 C   0  0  0  0  0  0  0  0  0  0  0  0
   -2.7233    0.2708   -0.8097 C   0  0  0  0  0  0  0  0  0  0  0  0
   -2.6299    1.3754   -1.6140 C   0  0  0  0  0  0  0  0  0  0  0  0
   -3.0609    2.5441   -1.1108 N   0  0  0  0  0  0  0  0  0  0  0  0
   -3.5685    2.6515    0.1301 C   0  0  0  0  0  0  0  0  0  0  0  0
   -4.0094    3.9396    0.5965 N   0  0  0  0  0  0  0  0  0  0  0  0
   -3.6500    1.5603    0.8968 N   0  0  0  0  0  0  0  0  0  0  0  0
   -3.2394    0.3572    0.4641 C   0  0  0  0  0  0  0  0  0  0  0  0
   -3.3252   -0.8131    1.2792 N   0  0  0  0  0  0  0  0  0  0  0  0
    0.2522   -1.0279   -1.1935 C   0  0  0  0  0  0  0  0  0  0  0  0
    1.4391   -1.3278   -0.5595 C   0  0  0  0  0  0  0  0  0  0  0  0
  1  2  1  0
  2  3  1  0
  3  4  1  0
  4  5  1  0
  5  6  1  0
  6  7  1  0
  7  8  2  0
  8  9  1  0
  9 10  2  0
 10 11  1  0
 11 12  1  0
 12 13  2  0
 13 14  1  0
 14 15  2  0
 15 16  1  0
 15 17  1  0
 17 18  2  0
 18 19  1  0
 10 20  1  0
 20 21  2  0
 21  7  1  0
 18 12  1  0
M  END
>  <zinc_id>  (585) 
ZINC000013532846

>  <ortholog_name>  (585) 
DRTS_PLAFK

>  <gene_name>  (585) 
DRTS_PLAFK

>  <affinity>  (585) 
8.07

>  <chembldocid>  (585) 
17636

>  <title>  (585) 
None

>  <reference.pubmed_id>  (585) 
14711307

>  <reference.doi>  (585) 
None

>  <reference.chembl_id>  (585) 
CHEMBL1148379

>  <reference.journal>  (585) 
J. Med. Chem.

>  <reference.year>  (585) 
2004

$$$$

     RDKit          3D

 21 22  0  0  0  0  0  0  0  0999 V2000
    6.3231    2.1009   -1.0799 C   0  0  0  0  0  0  0  0  0  0  0  0
    5.0768    1.6362   -0.3878 C   0  0  0  0  0  0  0  0  0  0  0  0
    5.0946    0.1393   -0.2254 C   0  0  0  0  0  0  0  0  0  0  0  0
    3.8540   -0.3660    0.4673 C   0  0  0  0  0  0  0  0  0  0  0  0
    3.8845   -1.8771    0.6257 C   0  0  0  0  0  0  0  0  0  0  0  0
    2.6846   -2.2943    1.2862 O   0  0  0  0  0  0  0  0  0  0  0  0
    1.4724   -1.9944    0.6501 C   0  0  0  0  0  0  0  0  0  0  0  0
    0.2633   -2.3514    1.2035 C   0  0  0  0  0  0  0  0  0  0  0  0
   -0.9101   -2.0507    0.5692 C   0  0  0  0  0  0  0  0  0  0  0  0
   -0.9616   -1.3867   -0.6367 C   0  0  0  0  0  0  0  0  0  0  0  0
   -2.2663   -1.0857   -1.2766 C   0  0  0  0  0  0  0  0  0  0  0  0
   -2.7233    0.2708   -0.8097 C   0  0  0  0  0  0  0  0  0  0  0  0
   -2.6299    1.3754   -1.6140 C   0  0  0  0  0  0  0  0  0  0  0  0
   -3.0609    2.5441   -1.1108 N   0  0  0  0  0  0  0  0  0  0  0  0
   -3.5685    2.6515    0.1301 C   0  0  0  0  0  0  0  0  0  0  0  0
   -4.0094    3.9396    0.5965 N   0  0  0  0  0  0  0  0  0  0  0  0
   -3.6500    1.5603    0.8968 N   0  0  0  0  0  0  0  0  0  0  0  0
   -3.2394    0.3572    0.4641 C   0  0  0  0  0  0  0  0  0  0  0  0
   -3.3252   -0.8131    1.2792 N   0  0  0  0  0  0  0  0  0  0  0  0
    0.2522   -1.0279   -1.1935 C   0  0  0  0  0  0  0  0  0  0  0  0
    1.4391   -1.3278   -0.5595 C   0  0  0  0  0  0  0  0  0  0  0  0
  1  2  1  0
  2  3  1  0
  3  4  1  0
  4  5  1  0
  5  6  1  0
  6  7  1  0
  7  8  2  0
  8  9  1  0
  9 10  2  0
 10 11  1  0
 11 12  1  0
 12 13  2  0
 13 14  1  0
 14 15  2  0
 15 16  1  0
 15 17  1  0
 17 18  2  0
 18 19  1  0
 10 20  1  0
 20 21  2  0
 21  7  1  0
 18 12  1  0
M  END
>  <zinc_id>  (586) 
ZINC000013532846

>  <ortholog_name>  (586) 
DRTS_PLAFK

>  <gene_name>  (586) 
DRTS_PLAFK

>  <affinity>  (586) 
6.04

>  <chembldocid>  (586) 
17636

>  <title>  (586) 
None

>  <reference.pubmed_id>  (586) 
14711307

>  <reference.doi>  (586) 
None

>  <reference.chembl_id>  (586) 
CHEMBL1148379

>  <reference.journal>  (586) 
J. Med. Chem.

>  <reference.year>  (586) 
2004

$$$$

     RDKit          3D

 21 22  0  0  0  0  0  0  0  0999 V2000
    2.6768    2.4415   -1.2878 C   0  0  0  0  0  0  0  0  0  0  0  0
    2.4478    2.4722    0.1961 C   0  0  0  0  0  0  0  0  0  0  0  0
    3.4695    1.5929    0.9296 C   0  0  0  0  0  0  0  0  0  0  0  0
    3.3438    0.2835    0.4781 O   0  0  0  0  0  0  0  0  0  0  0  0
    2.2294   -0.5240    0.5405 C   0  0  0  0  0  0  0  0  0  0  0  0
    1.0110   -0.1363    1.0828 C   0  0  0  0  0  0  0  0  0  0  0  0
   -0.0793   -0.9817    1.1234 C   0  0  0  0  0  0  0  0  0  0  0  0
   -1.3873   -0.5888    1.6967 C   0  0  0  0  0  0  0  0  0  0  0  0
   -2.3079    0.0201    0.7077 C   0  0  0  0  0  0  0  0  0  0  0  0
   -3.3816   -0.6365    0.1413 C   0  0  0  0  0  0  0  0  0  0  0  0
   -4.1581    0.0162   -0.7530 N   0  0  0  0  0  0  0  0  0  0  0  0
   -3.9460    1.2877   -1.1322 C   0  0  0  0  0  0  0  0  0  0  0  0
   -4.8115    1.9262   -2.0908 N   0  0  0  0  0  0  0  0  0  0  0  0
   -2.9052    1.9356   -0.5883 N   0  0  0  0  0  0  0  0  0  0  0  0
   -2.0922    1.3207    0.3188 C   0  0  0  0  0  0  0  0  0  0  0  0
   -0.9913    2.0135    0.8906 N   0  0  0  0  0  0  0  0  0  0  0  0
    0.0561   -2.2629    0.6015 C   0  0  0  0  0  0  0  0  0  0  0  0
    1.2535   -2.6700    0.0592 C   0  0  0  0  0  0  0  0  0  0  0  0
    2.3386   -1.8062    0.0269 C   0  0  0  0  0  0  0  0  0  0  0  0
    3.5548   -2.1981   -0.5159 O   0  0  0  0  0  0  0  0  0  0  0  0
    3.6790   -3.5057   -1.0428 C   0  0  0  0  0  0  0  0  0  0  0  0
  1  2  1  0
  2  3  1  0
  3  4  1  0
  4  5  1  0
  5  6  2  0
  6  7  1  0
  7  8  1  0
  8  9  1  0
  9 10  2  0
 10 11  1  0
 11 12  2  0
 12 13  1  0
 12 14  1  0
 14 15  2  0
 15 16  1  0
  7 17  2  0
 17 18  1  0
 18 19  2  0
 19 20  1  0
 20 21  1  0
 19  5  1  0
 15  9  1  0
M  END
>  <zinc_id>  (587) 
ZINC000013532849

>  <ortholog_name>  (587) 
DRTS_PLAFK

>  <gene_name>  (587) 
DRTS_PLAFK

>  <affinity>  (587) 
8.74

>  <chembldocid>  (587) 
17636

>  <title>  (587) 
None

>  <reference.pubmed_id>  (587) 
14711307

>  <reference.doi>  (587) 
None

>  <reference.chembl_id>  (587) 
CHEMBL1148379

>  <reference.journal>  (587) 
J. Med. Chem.

>  <reference.year>  (587) 
2004

$$$$

     RDKit          3D

 21 22  0  0  0  0  0  0  0  0999 V2000
    2.6768    2.4415   -1.2878 C   0  0  0  0  0  0  0  0  0  0  0  0
    2.4478    2.4722    0.1961 C   0  0  0  0  0  0  0  0  0  0  0  0
    3.4695    1.5929    0.9296 C   0  0  0  0  0  0  0  0  0  0  0  0
    3.3438    0.2835    0.4781 O   0  0  0  0  0  0  0  0  0  0  0  0
    2.2294   -0.5240    0.5405 C   0  0  0  0  0  0  0  0  0  0  0  0
    1.0110   -0.1363    1.0828 C   0  0  0  0  0  0  0  0  0  0  0  0
   -0.0793   -0.9817    1.1234 C   0  0  0  0  0  0  0  0  0  0  0  0
   -1.3873   -0.5888    1.6967 C   0  0  0  0  0  0  0  0  0  0  0  0
   -2.3079    0.0201    0.7077 C   0  0  0  0  0  0  0  0  0  0  0  0
   -3.3816   -0.6365    0.1413 C   0  0  0  0  0  0  0  0  0  0  0  0
   -4.1581    0.0162   -0.7530 N   0  0  0  0  0  0  0  0  0  0  0  0
   -3.9460    1.2877   -1.1322 C   0  0  0  0  0  0  0  0  0  0  0  0
   -4.8115    1.9262   -2.0908 N   0  0  0  0  0  0  0  0  0  0  0  0
   -2.9052    1.9356   -0.5883 N   0  0  0  0  0  0  0  0  0  0  0  0
   -2.0922    1.3207    0.3188 C   0  0  0  0  0  0  0  0  0  0  0  0
   -0.9913    2.0135    0.8906 N   0  0  0  0  0  0  0  0  0  0  0  0
    0.0561   -2.2629    0.6015 C   0  0  0  0  0  0  0  0  0  0  0  0
    1.2535   -2.6700    0.0592 C   0  0  0  0  0  0  0  0  0  0  0  0
    2.3386   -1.8062    0.0269 C   0  0  0  0  0  0  0  0  0  0  0  0
    3.5548   -2.1981   -0.5159 O   0  0  0  0  0  0  0  0  0  0  0  0
    3.6790   -3.5057   -1.0428 C   0  0  0  0  0  0  0  0  0  0  0  0
  1  2  1  0
  2  3  1  0
  3  4  1  0
  4  5  1  0
  5  6  2  0
  6  7  1  0
  7  8  1  0
  8  9  1  0
  9 10  2  0
 10 11  1  0
 11 12  2  0
 12 13  1  0
 12 14  1  0
 14 15  2  0
 15 16  1  0
  7 17  2  0
 17 18  1  0
 18 19  2  0
 19 20  1  0
 20 21  1  0
 19  5  1  0
 15  9  1  0
M  END
>  <zinc_id>  (588) 
ZINC000013532849

>  <ortholog_name>  (588) 
DRTS_PLAFK

>  <gene_name>  (588) 
DRTS_PLAFK

>  <affinity>  (588) 
6.84

>  <chembldocid>  (588) 
17636

>  <title>  (588) 
None

>  <reference.pubmed_id>  (588) 
14711307

>  <reference.doi>  (588) 
None

>  <reference.chembl_id>  (588) 
CHEMBL1148379

>  <reference.journal>  (588) 
J. Med. Chem.

>  <reference.year>  (588) 
2004

$$$$

     RDKit          3D

 21 22  0  0  0  0  0  0  0  0999 V2000
    2.6768    2.4415   -1.2878 C   0  0  0  0  0  0  0  0  0  0  0  0
    2.4478    2.4722    0.1961 C   0  0  0  0  0  0  0  0  0  0  0  0
    3.4695    1.5929    0.9296 C   0  0  0  0  0  0  0  0  0  0  0  0
    3.3438    0.2835    0.4781 O   0  0  0  0  0  0  0  0  0  0  0  0
    2.2294   -0.5240    0.5405 C   0  0  0  0  0  0  0  0  0  0  0  0
    1.0110   -0.1363    1.0828 C   0  0  0  0  0  0  0  0  0  0  0  0
   -0.0793   -0.9817    1.1234 C   0  0  0  0  0  0  0  0  0  0  0  0
   -1.3873   -0.5888    1.6967 C   0  0  0  0  0  0  0  0  0  0  0  0
   -2.3079    0.0201    0.7077 C   0  0  0  0  0  0  0  0  0  0  0  0
   -3.3816   -0.6365    0.1413 C   0  0  0  0  0  0  0  0  0  0  0  0
   -4.1581    0.0162   -0.7530 N   0  0  0  0  0  0  0  0  0  0  0  0
   -3.9460    1.2877   -1.1322 C   0  0  0  0  0  0  0  0  0  0  0  0
   -4.8115    1.9262   -2.0908 N   0  0  0  0  0  0  0  0  0  0  0  0
   -2.9052    1.9356   -0.5883 N   0  0  0  0  0  0  0  0  0  0  0  0
   -2.0922    1.3207    0.3188 C   0  0  0  0  0  0  0  0  0  0  0  0
   -0.9913    2.0135    0.8906 N   0  0  0  0  0  0  0  0  0  0  0  0
    0.0561   -2.2629    0.6015 C   0  0  0  0  0  0  0  0  0  0  0  0
    1.2535   -2.6700    0.0592 C   0  0  0  0  0  0  0  0  0  0  0  0
    2.3386   -1.8062    0.0269 C   0  0  0  0  0  0  0  0  0  0  0  0
    3.5548   -2.1981   -0.5159 O   0  0  0  0  0  0  0  0  0  0  0  0
    3.6790   -3.5057   -1.0428 C   0  0  0  0  0  0  0  0  0  0  0  0
  1  2  1  0
  2  3  1  0
  3  4  1  0
  4  5  1  0
  5  6  2  0
  6  7  1  0
  7  8  1  0
  8  9  1  0
  9 10  2  0
 10 11  1  0
 11 12  2  0
 12 13  1  0
 12 14  1  0
 14 15  2  0
 15 16  1  0
  7 17  2  0
 17 18  1  0
 18 19  2  0
 19 20  1  0
 20 21  1  0
 19  5  1  0
 15  9  1  0
M  END
>  <zinc_id>  (589) 
ZINC000013532849

>  <ortholog_name>  (589) 
DRTS_PLAFK

>  <gene_name>  (589) 
DRTS_PLAFK

>  <affinity>  (589) 
7.28

>  <chembldocid>  (589) 
17636

>  <title>  (589) 
None

>  <reference.pubmed_id>  (589) 
14711307

>  <reference.doi>  (589) 
None

>  <reference.chembl_id>  (589) 
CHEMBL1148379

>  <reference.journal>  (589) 
J. Med. Chem.

>  <reference.year>  (589) 
2004

$$$$

     RDKit          3D

 21 22  0  0  0  0  0  0  0  0999 V2000
    2.6768    2.4415   -1.2878 C   0  0  0  0  0  0  0  0  0  0  0  0
    2.4478    2.4722    0.1961 C   0  0  0  0  0  0  0  0  0  0  0  0
    3.4695    1.5929    0.9296 C   0  0  0  0  0  0  0  0  0  0  0  0
    3.3438    0.2835    0.4781 O   0  0  0  0  0  0  0  0  0  0  0  0
    2.2294   -0.5240    0.5405 C   0  0  0  0  0  0  0  0  0  0  0  0
    1.0110   -0.1363    1.0828 C   0  0  0  0  0  0  0  0  0  0  0  0
   -0.0793   -0.9817    1.1234 C   0  0  0  0  0  0  0  0  0  0  0  0
   -1.3873   -0.5888    1.6967 C   0  0  0  0  0  0  0  0  0  0  0  0
   -2.3079    0.0201    0.7077 C   0  0  0  0  0  0  0  0  0  0  0  0
   -3.3816   -0.6365    0.1413 C   0  0  0  0  0  0  0  0  0  0  0  0
   -4.1581    0.0162   -0.7530 N   0  0  0  0  0  0  0  0  0  0  0  0
   -3.9460    1.2877   -1.1322 C   0  0  0  0  0  0  0  0  0  0  0  0
   -4.8115    1.9262   -2.0908 N   0  0  0  0  0  0  0  0  0  0  0  0
   -2.9052    1.9356   -0.5883 N   0  0  0  0  0  0  0  0  0  0  0  0
   -2.0922    1.3207    0.3188 C   0  0  0  0  0  0  0  0  0  0  0  0
   -0.9913    2.0135    0.8906 N   0  0  0  0  0  0  0  0  0  0  0  0
    0.0561   -2.2629    0.6015 C   0  0  0  0  0  0  0  0  0  0  0  0
    1.2535   -2.6700    0.0592 C   0  0  0  0  0  0  0  0  0  0  0  0
    2.3386   -1.8062    0.0269 C   0  0  0  0  0  0  0  0  0  0  0  0
    3.5548   -2.1981   -0.5159 O   0  0  0  0  0  0  0  0  0  0  0  0
    3.6790   -3.5057   -1.0428 C   0  0  0  0  0  0  0  0  0  0  0  0
  1  2  1  0
  2  3  1  0
  3  4  1  0
  4  5  1  0
  5  6  2  0
  6  7  1  0
  7  8  1  0
  8  9  1  0
  9 10  2  0
 10 11  1  0
 11 12  2  0
 12 13  1  0
 12 14  1  0
 14 15  2  0
 15 16  1  0
  7 17  2  0
 17 18  1  0
 18 19  2  0
 19 20  1  0
 20 21  1  0
 19  5  1  0
 15  9  1  0
M  END
>  <zinc_id>  (590) 
ZINC000013532849

>  <ortholog_name>  (590) 
DRTS_PLAFK

>  <gene_name>  (590) 
DRTS_PLAFK

>  <affinity>  (590) 
6.04

>  <chembldocid>  (590) 
17636

>  <title>  (590) 
None

>  <reference.pubmed_id>  (590) 
14711307

>  <reference.doi>  (590) 
None

>  <reference.chembl_id>  (590) 
CHEMBL1148379

>  <reference.journal>  (590) 
J. Med. Chem.

>  <reference.year>  (590) 
2004

$$$$

     RDKit          3D

 22 23  0  0  0  0  0  0  0  0999 V2000
    5.2663    1.8578    0.8995 C   0  0  0  0  0  0  0  0  0  0  0  0
    5.1284    1.7669   -0.6004 C   0  0  0  0  0  0  0  0  0  0  0  0
    3.8026    2.3281   -1.0852 C   0  0  0  0  0  0  0  0  0  0  0  0
    2.6909    1.5498   -0.4580 C   0  0  0  0  0  0  0  0  0  0  0  0
    2.7395    0.1692   -0.7906 O   0  0  0  0  0  0  0  0  0  0  0  0
    1.7510   -0.6544   -0.2625 C   0  0  0  0  0  0  0  0  0  0  0  0
    0.7508   -0.1629    0.5599 C   0  0  0  0  0  0  0  0  0  0  0  0
   -0.2123   -0.9919    1.0688 C   0  0  0  0  0  0  0  0  0  0  0  0
   -1.3031   -0.4845    1.9617 C   0  0  0  0  0  0  0  0  0  0  0  0
   -2.4727   -0.0867    1.1611 C   0  0  0  0  0  0  0  0  0  0  0  0
   -3.6248   -0.8625    1.0786 C   0  0  0  0  0  0  0  0  0  0  0  0
   -4.6914   -0.4941    0.3471 N   0  0  0  0  0  0  0  0  0  0  0  0
   -4.6836    0.6586   -0.3443 C   0  0  0  0  0  0  0  0  0  0  0  0
   -5.8230    1.0473   -1.1230 N   0  0  0  0  0  0  0  0  0  0  0  0
   -3.5779    1.4185   -0.2742 N   0  0  0  0  0  0  0  0  0  0  0  0
   -2.4880    1.0917    0.4435 C   0  0  0  0  0  0  0  0  0  0  0  0
   -1.3314    1.9427    0.4841 N   0  0  0  0  0  0  0  0  0  0  0  0
   -0.1511   -2.3208    0.7357 C   0  0  0  0  0  0  0  0  0  0  0  0
    0.8279   -2.8267   -0.0746 C   0  0  0  0  0  0  0  0  0  0  0  0
    1.7900   -1.9896   -0.5808 C   0  0  0  0  0  0  0  0  0  0  0  0
    2.7780   -2.5295   -1.4052 O   0  0  0  0  0  0  0  0  0  0  0  0
    2.8338   -3.8861   -1.7410 C   0  0  0  0  0  0  0  0  0  0  0  0
  1  2  1  0
  2  3  1  0
  3  4  1  0
  4  5  1  0
  5  6  1  0
  6  7  2  0
  7  8  1  0
  8  9  1  0
  9 10  1  0
 10 11  2  0
 11 12  1  0
 12 13  2  0
 13 14  1  0
 13 15  1  0
 15 16  2  0
 16 17  1  0
  8 18  2  0
 18 19  1  0
 19 20  2  0
 20 21  1  0
 21 22  1  0
 20  6  1  0
 16 10  1  0
M  END
>  <zinc_id>  (591) 
ZINC000013532854

>  <ortholog_name>  (591) 
DRTS_PLAFK

>  <gene_name>  (591) 
DRTS_PLAFK

>  <affinity>  (591) 
5.99

>  <chembldocid>  (591) 
17636

>  <title>  (591) 
None

>  <reference.pubmed_id>  (591) 
14711307

>  <reference.doi>  (591) 
None

>  <reference.chembl_id>  (591) 
CHEMBL1148379

>  <reference.journal>  (591) 
J. Med. Chem.

>  <reference.year>  (591) 
2004

$$$$

     RDKit          3D

 22 23  0  0  0  0  0  0  0  0999 V2000
    5.2663    1.8578    0.8995 C   0  0  0  0  0  0  0  0  0  0  0  0
    5.1284    1.7669   -0.6004 C   0  0  0  0  0  0  0  0  0  0  0  0
    3.8026    2.3281   -1.0852 C   0  0  0  0  0  0  0  0  0  0  0  0
    2.6909    1.5498   -0.4580 C   0  0  0  0  0  0  0  0  0  0  0  0
    2.7395    0.1692   -0.7906 O   0  0  0  0  0  0  0  0  0  0  0  0
    1.7510   -0.6544   -0.2625 C   0  0  0  0  0  0  0  0  0  0  0  0
    0.7508   -0.1629    0.5599 C   0  0  0  0  0  0  0  0  0  0  0  0
   -0.2123   -0.9919    1.0688 C   0  0  0  0  0  0  0  0  0  0  0  0
   -1.3031   -0.4845    1.9617 C   0  0  0  0  0  0  0  0  0  0  0  0
   -2.4727   -0.0867    1.1611 C   0  0  0  0  0  0  0  0  0  0  0  0
   -3.6248   -0.8625    1.0786 C   0  0  0  0  0  0  0  0  0  0  0  0
   -4.6914   -0.4941    0.3471 N   0  0  0  0  0  0  0  0  0  0  0  0
   -4.6836    0.6586   -0.3443 C   0  0  0  0  0  0  0  0  0  0  0  0
   -5.8230    1.0473   -1.1230 N   0  0  0  0  0  0  0  0  0  0  0  0
   -3.5779    1.4185   -0.2742 N   0  0  0  0  0  0  0  0  0  0  0  0
   -2.4880    1.0917    0.4435 C   0  0  0  0  0  0  0  0  0  0  0  0
   -1.3314    1.9427    0.4841 N   0  0  0  0  0  0  0  0  0  0  0  0
   -0.1511   -2.3208    0.7357 C   0  0  0  0  0  0  0  0  0  0  0  0
    0.8279   -2.8267   -0.0746 C   0  0  0  0  0  0  0  0  0  0  0  0
    1.7900   -1.9896   -0.5808 C   0  0  0  0  0  0  0  0  0  0  0  0
    2.7780   -2.5295   -1.4052 O   0  0  0  0  0  0  0  0  0  0  0  0
    2.8338   -3.8861   -1.7410 C   0  0  0  0  0  0  0  0  0  0  0  0
  1  2  1  0
  2  3  1  0
  3  4  1  0
  4  5  1  0
  5  6  1  0
  6  7  2  0
  7  8  1  0
  8  9  1  0
  9 10  1  0
 10 11  2  0
 11 12  1  0
 12 13  2  0
 13 14  1  0
 13 15  1  0
 15 16  2  0
 16 17  1  0
  8 18  2  0
 18 19  1  0
 19 20  2  0
 20 21  1  0
 21 22  1  0
 20  6  1  0
 16 10  1  0
M  END
>  <zinc_id>  (592) 
ZINC000013532854

>  <ortholog_name>  (592) 
DRTS_PLAFK

>  <gene_name>  (592) 
DRTS_PLAFK

>  <affinity>  (592) 
6.71

>  <chembldocid>  (592) 
17636

>  <title>  (592) 
None

>  <reference.pubmed_id>  (592) 
14711307

>  <reference.doi>  (592) 
None

>  <reference.chembl_id>  (592) 
CHEMBL1148379

>  <reference.journal>  (592) 
J. Med. Chem.

>  <reference.year>  (592) 
2004

$$$$

     RDKit          3D

 22 23  0  0  0  0  0  0  0  0999 V2000
    5.2663    1.8578    0.8995 C   0  0  0  0  0  0  0  0  0  0  0  0
    5.1284    1.7669   -0.6004 C   0  0  0  0  0  0  0  0  0  0  0  0
    3.8026    2.3281   -1.0852 C   0  0  0  0  0  0  0  0  0  0  0  0
    2.6909    1.5498   -0.4580 C   0  0  0  0  0  0  0  0  0  0  0  0
    2.7395    0.1692   -0.7906 O   0  0  0  0  0  0  0  0  0  0  0  0
    1.7510   -0.6544   -0.2625 C   0  0  0  0  0  0  0  0  0  0  0  0
    0.7508   -0.1629    0.5599 C   0  0  0  0  0  0  0  0  0  0  0  0
   -0.2123   -0.9919    1.0688 C   0  0  0  0  0  0  0  0  0  0  0  0
   -1.3031   -0.4845    1.9617 C   0  0  0  0  0  0  0  0  0  0  0  0
   -2.4727   -0.0867    1.1611 C   0  0  0  0  0  0  0  0  0  0  0  0
   -3.6248   -0.8625    1.0786 C   0  0  0  0  0  0  0  0  0  0  0  0
   -4.6914   -0.4941    0.3471 N   0  0  0  0  0  0  0  0  0  0  0  0
   -4.6836    0.6586   -0.3443 C   0  0  0  0  0  0  0  0  0  0  0  0
   -5.8230    1.0473   -1.1230 N   0  0  0  0  0  0  0  0  0  0  0  0
   -3.5779    1.4185   -0.2742 N   0  0  0  0  0  0  0  0  0  0  0  0
   -2.4880    1.0917    0.4435 C   0  0  0  0  0  0  0  0  0  0  0  0
   -1.3314    1.9427    0.4841 N   0  0  0  0  0  0  0  0  0  0  0  0
   -0.1511   -2.3208    0.7357 C   0  0  0  0  0  0  0  0  0  0  0  0
    0.8279   -2.8267   -0.0746 C   0  0  0  0  0  0  0  0  0  0  0  0
    1.7900   -1.9896   -0.5808 C   0  0  0  0  0  0  0  0  0  0  0  0
    2.7780   -2.5295   -1.4052 O   0  0  0  0  0  0  0  0  0  0  0  0
    2.8338   -3.8861   -1.7410 C   0  0  0  0  0  0  0  0  0  0  0  0
  1  2  1  0
  2  3  1  0
  3  4  1  0
  4  5  1  0
  5  6  1  0
  6  7  2  0
  7  8  1  0
  8  9  1  0
  9 10  1  0
 10 11  2  0
 11 12  1  0
 12 13  2  0
 13 14  1  0
 13 15  1  0
 15 16  2  0
 16 17  1  0
  8 18  2  0
 18 19  1  0
 19 20  2  0
 20 21  1  0
 21 22  1  0
 20  6  1  0
 16 10  1  0
M  END
>  <zinc_id>  (593) 
ZINC000013532854

>  <ortholog_name>  (593) 
DRTS_PLAFK

>  <gene_name>  (593) 
DRTS_PLAFK

>  <affinity>  (593) 
8.60

>  <chembldocid>  (593) 
17636

>  <title>  (593) 
None

>  <reference.pubmed_id>  (593) 
14711307

>  <reference.doi>  (593) 
None

>  <reference.chembl_id>  (593) 
CHEMBL1148379

>  <reference.journal>  (593) 
J. Med. Chem.

>  <reference.year>  (593) 
2004

$$$$

     RDKit          3D

 22 23  0  0  0  0  0  0  0  0999 V2000
    5.2663    1.8578    0.8995 C   0  0  0  0  0  0  0  0  0  0  0  0
    5.1284    1.7669   -0.6004 C   0  0  0  0  0  0  0  0  0  0  0  0
    3.8026    2.3281   -1.0852 C   0  0  0  0  0  0  0  0  0  0  0  0
    2.6909    1.5498   -0.4580 C   0  0  0  0  0  0  0  0  0  0  0  0
    2.7395    0.1692   -0.7906 O   0  0  0  0  0  0  0  0  0  0  0  0
    1.7510   -0.6544   -0.2625 C   0  0  0  0  0  0  0  0  0  0  0  0
    0.7508   -0.1629    0.5599 C   0  0  0  0  0  0  0  0  0  0  0  0
   -0.2123   -0.9919    1.0688 C   0  0  0  0  0  0  0  0  0  0  0  0
   -1.3031   -0.4845    1.9617 C   0  0  0  0  0  0  0  0  0  0  0  0
   -2.4727   -0.0867    1.1611 C   0  0  0  0  0  0  0  0  0  0  0  0
   -3.6248   -0.8625    1.0786 C   0  0  0  0  0  0  0  0  0  0  0  0
   -4.6914   -0.4941    0.3471 N   0  0  0  0  0  0  0  0  0  0  0  0
   -4.6836    0.6586   -0.3443 C   0  0  0  0  0  0  0  0  0  0  0  0
   -5.8230    1.0473   -1.1230 N   0  0  0  0  0  0  0  0  0  0  0  0
   -3.5779    1.4185   -0.2742 N   0  0  0  0  0  0  0  0  0  0  0  0
   -2.4880    1.0917    0.4435 C   0  0  0  0  0  0  0  0  0  0  0  0
   -1.3314    1.9427    0.4841 N   0  0  0  0  0  0  0  0  0  0  0  0
   -0.1511   -2.3208    0.7357 C   0  0  0  0  0  0  0  0  0  0  0  0
    0.8279   -2.8267   -0.0746 C   0  0  0  0  0  0  0  0  0  0  0  0
    1.7900   -1.9896   -0.5808 C   0  0  0  0  0  0  0  0  0  0  0  0
    2.7780   -2.5295   -1.4052 O   0  0  0  0  0  0  0  0  0  0  0  0
    2.8338   -3.8861   -1.7410 C   0  0  0  0  0  0  0  0  0  0  0  0
  1  2  1  0
  2  3  1  0
  3  4  1  0
  4  5  1  0
  5  6  1  0
  6  7  2  0
  7  8  1  0
  8  9  1  0
  9 10  1  0
 10 11  2  0
 11 12  1  0
 12 13  2  0
 13 14  1  0
 13 15  1  0
 15 16  2  0
 16 17  1  0
  8 18  2  0
 18 19  1  0
 19 20  2  0
 20 21  1  0
 21 22  1  0
 20  6  1  0
 16 10  1  0
M  END
>  <zinc_id>  (594) 
ZINC000013532854

>  <ortholog_name>  (594) 
DRTS_PLAFK

>  <gene_name>  (594) 
DRTS_PLAFK

>  <affinity>  (594) 
6.11

>  <chembldocid>  (594) 
17636

>  <title>  (594) 
None

>  <reference.pubmed_id>  (594) 
14711307

>  <reference.doi>  (594) 
None

>  <reference.chembl_id>  (594) 
CHEMBL1148379

>  <reference.journal>  (594) 
J. Med. Chem.

>  <reference.year>  (594) 
2004

$$$$

     RDKit          3D

 23 24  0  0  0  0  0  0  0  0999 V2000
    6.0994    0.9978    0.4425 C   0  0  0  0  0  0  0  0  0  0  0  0
    4.7719    1.0498   -0.2850 C   0  0  0  0  0  0  0  0  0  0  0  0
    3.6670    1.1346    0.7467 C   0  0  0  0  0  0  0  0  0  0  0  0
    3.6805   -0.0656    1.6696 C   0  0  0  0  0  0  0  0  0  0  0  0
    3.4875   -1.3536    0.8866 C   0  0  0  0  0  0  0  0  0  0  0  0
    2.3842   -1.4033    0.2379 O   0  0  0  0  0  0  0  0  0  0  0  0
    1.2242   -1.4445   -0.3417 C   0  0  0  0  0  0  0  0  0  0  0  0
    0.0549   -1.3303    0.4299 C   0  0  0  0  0  0  0  0  0  0  0  0
   -1.1868   -1.3688   -0.1333 C   0  0  0  0  0  0  0  0  0  0  0  0
   -2.4667   -1.2454    0.6255 C   0  0  0  0  0  0  0  0  0  0  0  0
   -2.9480    0.1341    0.6756 C   0  0  0  0  0  0  0  0  0  0  0  0
   -3.9846    0.5501   -0.1161 C   0  0  0  0  0  0  0  0  0  0  0  0
   -4.4153    1.8439   -0.0583 N   0  0  0  0  0  0  0  0  0  0  0  0
   -3.8414    2.7289    0.7654 C   0  0  0  0  0  0  0  0  0  0  0  0
   -4.3223    4.0827    0.7973 N   0  0  0  0  0  0  0  0  0  0  0  0
   -2.8293    2.3440    1.5464 N   0  0  0  0  0  0  0  0  0  0  0  0
   -2.3758    1.0528    1.5095 C   0  0  0  0  0  0  0  0  0  0  0  0
   -1.3030    0.6488    2.3388 N   0  0  0  0  0  0  0  0  0  0  0  0
   -1.2603   -1.5269   -1.5104 C   0  0  0  0  0  0  0  0  0  0  0  0
   -0.1248   -1.6406   -2.2832 C   0  0  0  0  0  0  0  0  0  0  0  0
    1.1250   -1.6046   -1.7426 C   0  0  0  0  0  0  0  0  0  0  0  0
    2.2991   -1.7110   -2.4470 O   0  0  0  0  0  0  0  0  0  0  0  0
    2.2646   -1.8729   -3.8532 C   0  0  0  0  0  0  0  0  0  0  0  0
  1  2  1  0
  2  3  1  0
  3  4  1  0
  4  5  1  0
  5  6  1  0
  6  7  1  0
  7  8  2  0
  8  9  1  0
  9 10  1  0
 10 11  1  0
 11 12  2  0
 12 13  1  0
 13 14  2  0
 14 15  1  0
 14 16  1  0
 16 17  2  0
 17 18  1  0
  9 19  2  0
 19 20  1  0
 20 21  2  0
 21 22  1  0
 22 23  1  0
 21  7  1  0
 17 11  1  0
M  END
>  <zinc_id>  (595) 
ZINC000013532859

>  <ortholog_name>  (595) 
DRTS_PLAFK

>  <gene_name>  (595) 
DRTS_PLAFK

>  <affinity>  (595) 
6.87

>  <chembldocid>  (595) 
17636

>  <title>  (595) 
None

>  <reference.pubmed_id>  (595) 
14711307

>  <reference.doi>  (595) 
None

>  <reference.chembl_id>  (595) 
CHEMBL1148379

>  <reference.journal>  (595) 
J. Med. Chem.

>  <reference.year>  (595) 
2004

$$$$

     RDKit          3D

 23 24  0  0  0  0  0  0  0  0999 V2000
    6.0994    0.9978    0.4425 C   0  0  0  0  0  0  0  0  0  0  0  0
    4.7719    1.0498   -0.2850 C   0  0  0  0  0  0  0  0  0  0  0  0
    3.6670    1.1346    0.7467 C   0  0  0  0  0  0  0  0  0  0  0  0
    3.6805   -0.0656    1.6696 C   0  0  0  0  0  0  0  0  0  0  0  0
    3.4875   -1.3536    0.8866 C   0  0  0  0  0  0  0  0  0  0  0  0
    2.3842   -1.4033    0.2379 O   0  0  0  0  0  0  0  0  0  0  0  0
    1.2242   -1.4445   -0.3417 C   0  0  0  0  0  0  0  0  0  0  0  0
    0.0549   -1.3303    0.4299 C   0  0  0  0  0  0  0  0  0  0  0  0
   -1.1868   -1.3688   -0.1333 C   0  0  0  0  0  0  0  0  0  0  0  0
   -2.4667   -1.2454    0.6255 C   0  0  0  0  0  0  0  0  0  0  0  0
   -2.9480    0.1341    0.6756 C   0  0  0  0  0  0  0  0  0  0  0  0
   -3.9846    0.5501   -0.1161 C   0  0  0  0  0  0  0  0  0  0  0  0
   -4.4153    1.8439   -0.0583 N   0  0  0  0  0  0  0  0  0  0  0  0
   -3.8414    2.7289    0.7654 C   0  0  0  0  0  0  0  0  0  0  0  0
   -4.3223    4.0827    0.7973 N   0  0  0  0  0  0  0  0  0  0  0  0
   -2.8293    2.3440    1.5464 N   0  0  0  0  0  0  0  0  0  0  0  0
   -2.3758    1.0528    1.5095 C   0  0  0  0  0  0  0  0  0  0  0  0
   -1.3030    0.6488    2.3388 N   0  0  0  0  0  0  0  0  0  0  0  0
   -1.2603   -1.5269   -1.5104 C   0  0  0  0  0  0  0  0  0  0  0  0
   -0.1248   -1.6406   -2.2832 C   0  0  0  0  0  0  0  0  0  0  0  0
    1.1250   -1.6046   -1.7426 C   0  0  0  0  0  0  0  0  0  0  0  0
    2.2991   -1.7110   -2.4470 O   0  0  0  0  0  0  0  0  0  0  0  0
    2.2646   -1.8729   -3.8532 C   0  0  0  0  0  0  0  0  0  0  0  0
  1  2  1  0
  2  3  1  0
  3  4  1  0
  4  5  1  0
  5  6  1  0
  6  7  1  0
  7  8  2  0
  8  9  1  0
  9 10  1  0
 10 11  1  0
 11 12  2  0
 12 13  1  0
 13 14  2  0
 14 15  1  0
 14 16  1  0
 16 17  2  0
 17 18  1  0
  9 19  2  0
 19 20  1  0
 20 21  2  0
 21 22  1  0
 22 23  1  0
 21  7  1  0
 17 11  1  0
M  END
>  <zinc_id>  (596) 
ZINC000013532859

>  <ortholog_name>  (596) 
DRTS_PLAFK

>  <gene_name>  (596) 
DRTS_PLAFK

>  <affinity>  (596) 
8.66

>  <chembldocid>  (596) 
17636

>  <title>  (596) 
None

>  <reference.pubmed_id>  (596) 
14711307

>  <reference.doi>  (596) 
None

>  <reference.chembl_id>  (596) 
CHEMBL1148379

>  <reference.journal>  (596) 
J. Med. Chem.

>  <reference.year>  (596) 
2004

$$$$

     RDKit          3D

 23 24  0  0  0  0  0  0  0  0999 V2000
    6.0994    0.9978    0.4425 C   0  0  0  0  0  0  0  0  0  0  0  0
    4.7719    1.0498   -0.2850 C   0  0  0  0  0  0  0  0  0  0  0  0
    3.6670    1.1346    0.7467 C   0  0  0  0  0  0  0  0  0  0  0  0
    3.6805   -0.0656    1.6696 C   0  0  0  0  0  0  0  0  0  0  0  0
    3.4875   -1.3536    0.8866 C   0  0  0  0  0  0  0  0  0  0  0  0
    2.3842   -1.4033    0.2379 O   0  0  0  0  0  0  0  0  0  0  0  0
    1.2242   -1.4445   -0.3417 C   0  0  0  0  0  0  0  0  0  0  0  0
    0.0549   -1.3303    0.4299 C   0  0  0  0  0  0  0  0  0  0  0  0
   -1.1868   -1.3688   -0.1333 C   0  0  0  0  0  0  0  0  0  0  0  0
   -2.4667   -1.2454    0.6255 C   0  0  0  0  0  0  0  0  0  0  0  0
   -2.9480    0.1341    0.6756 C   0  0  0  0  0  0  0  0  0  0  0  0
   -3.9846    0.5501   -0.1161 C   0  0  0  0  0  0  0  0  0  0  0  0
   -4.4153    1.8439   -0.0583 N   0  0  0  0  0  0  0  0  0  0  0  0
   -3.8414    2.7289    0.7654 C   0  0  0  0  0  0  0  0  0  0  0  0
   -4.3223    4.0827    0.7973 N   0  0  0  0  0  0  0  0  0  0  0  0
   -2.8293    2.3440    1.5464 N   0  0  0  0  0  0  0  0  0  0  0  0
   -2.3758    1.0528    1.5095 C   0  0  0  0  0  0  0  0  0  0  0  0
   -1.3030    0.6488    2.3388 N   0  0  0  0  0  0  0  0  0  0  0  0
   -1.2603   -1.5269   -1.5104 C   0  0  0  0  0  0  0  0  0  0  0  0
   -0.1248   -1.6406   -2.2832 C   0  0  0  0  0  0  0  0  0  0  0  0
    1.1250   -1.6046   -1.7426 C   0  0  0  0  0  0  0  0  0  0  0  0
    2.2991   -1.7110   -2.4470 O   0  0  0  0  0  0  0  0  0  0  0  0
    2.2646   -1.8729   -3.8532 C   0  0  0  0  0  0  0  0  0  0  0  0
  1  2  1  0
  2  3  1  0
  3  4  1  0
  4  5  1  0
  5  6  1  0
  6  7  1  0
  7  8  2  0
  8  9  1  0
  9 10  1  0
 10 11  1  0
 11 12  2  0
 12 13  1  0
 13 14  2  0
 14 15  1  0
 14 16  1  0
 16 17  2  0
 17 18  1  0
  9 19  2  0
 19 20  1  0
 20 21  2  0
 21 22  1  0
 22 23  1  0
 21  7  1  0
 17 11  1  0
M  END
>  <zinc_id>  (597) 
ZINC000013532859

>  <ortholog_name>  (597) 
DRTS_PLAFK

>  <gene_name>  (597) 
DRTS_PLAFK

>  <affinity>  (597) 
6.60

>  <chembldocid>  (597) 
17636

>  <title>  (597) 
None

>  <reference.pubmed_id>  (597) 
14711307

>  <reference.doi>  (597) 
None

>  <reference.chembl_id>  (597) 
CHEMBL1148379

>  <reference.journal>  (597) 
J. Med. Chem.

>  <reference.year>  (597) 
2004

$$$$

     RDKit          3D

 23 24  0  0  0  0  0  0  0  0999 V2000
    6.0994    0.9978    0.4425 C   0  0  0  0  0  0  0  0  0  0  0  0
    4.7719    1.0498   -0.2850 C   0  0  0  0  0  0  0  0  0  0  0  0
    3.6670    1.1346    0.7467 C   0  0  0  0  0  0  0  0  0  0  0  0
    3.6805   -0.0656    1.6696 C   0  0  0  0  0  0  0  0  0  0  0  0
    3.4875   -1.3536    0.8866 C   0  0  0  0  0  0  0  0  0  0  0  0
    2.3842   -1.4033    0.2379 O   0  0  0  0  0  0  0  0  0  0  0  0
    1.2242   -1.4445   -0.3417 C   0  0  0  0  0  0  0  0  0  0  0  0
    0.0549   -1.3303    0.4299 C   0  0  0  0  0  0  0  0  0  0  0  0
   -1.1868   -1.3688   -0.1333 C   0  0  0  0  0  0  0  0  0  0  0  0
   -2.4667   -1.2454    0.6255 C   0  0  0  0  0  0  0  0  0  0  0  0
   -2.9480    0.1341    0.6756 C   0  0  0  0  0  0  0  0  0  0  0  0
   -3.9846    0.5501   -0.1161 C   0  0  0  0  0  0  0  0  0  0  0  0
   -4.4153    1.8439   -0.0583 N   0  0  0  0  0  0  0  0  0  0  0  0
   -3.8414    2.7289    0.7654 C   0  0  0  0  0  0  0  0  0  0  0  0
   -4.3223    4.0827    0.7973 N   0  0  0  0  0  0  0  0  0  0  0  0
   -2.8293    2.3440    1.5464 N   0  0  0  0  0  0  0  0  0  0  0  0
   -2.3758    1.0528    1.5095 C   0  0  0  0  0  0  0  0  0  0  0  0
   -1.3030    0.6488    2.3388 N   0  0  0  0  0  0  0  0  0  0  0  0
   -1.2603   -1.5269   -1.5104 C   0  0  0  0  0  0  0  0  0  0  0  0
   -0.1248   -1.6406   -2.2832 C   0  0  0  0  0  0  0  0  0  0  0  0
    1.1250   -1.6046   -1.7426 C   0  0  0  0  0  0  0  0  0  0  0  0
    2.2991   -1.7110   -2.4470 O   0  0  0  0  0  0  0  0  0  0  0  0
    2.2646   -1.8729   -3.8532 C   0  0  0  0  0  0  0  0  0  0  0  0
  1  2  1  0
  2  3  1  0
  3  4  1  0
  4  5  1  0
  5  6  1  0
  6  7  1  0
  7  8  2  0
  8  9  1  0
  9 10  1  0
 10 11  1  0
 11 12  2  0
 12 13  1  0
 13 14  2  0
 14 15  1  0
 14 16  1  0
 16 17  2  0
 17 18  1  0
  9 19  2  0
 19 20  1  0
 20 21  2  0
 21 22  1  0
 22 23  1  0
 21  7  1  0
 17 11  1  0
M  END
>  <zinc_id>  (598) 
ZINC000013532859

>  <ortholog_name>  (598) 
DRTS_PLAFK

>  <gene_name>  (598) 
DRTS_PLAFK

>  <affinity>  (598) 
6.35

>  <chembldocid>  (598) 
17636

>  <title>  (598) 
None

>  <reference.pubmed_id>  (598) 
14711307

>  <reference.doi>  (598) 
None

>  <reference.chembl_id>  (598) 
CHEMBL1148379

>  <reference.journal>  (598) 
J. Med. Chem.

>  <reference.year>  (598) 
2004

$$$$

     RDKit          3D

 24 25  0  0  0  0  0  0  0  0999 V2000
   -5.1073    0.6198   -2.2638 C   0  0  0  0  0  0  0  0  0  0  0  0
   -4.6518    0.5683   -0.8036 C   0  0  0  0  0  0  0  0  0  0  0  0
   -5.6223    1.3339    0.0718 C   0  0  0  0  0  0  0  0  0  0  0  0
   -5.1806    1.2850    1.4958 C   0  0  0  0  0  0  0  0  0  0  0  0
   -3.8169    1.8781    1.7471 C   0  0  0  0  0  0  0  0  0  0  0  0
   -2.8344    1.3391    1.1433 O   0  0  0  0  0  0  0  0  0  0  0  0
   -1.8698    0.6687    0.5993 C   0  0  0  0  0  0  0  0  0  0  0  0
   -1.6702   -0.6823    0.9152 C   0  0  0  0  0  0  0  0  0  0  0  0
   -0.6538   -1.3946    0.3447 C   0  0  0  0  0  0  0  0  0  0  0  0
    0.2238   -0.8403   -0.5616 C   0  0  0  0  0  0  0  0  0  0  0  0
    1.3226   -1.6518   -1.1690 C   0  0  0  0  0  0  0  0  0  0  0  0
    2.5571   -1.5586   -0.3706 C   0  0  0  0  0  0  0  0  0  0  0  0
    2.9195   -2.5909    0.4570 C   0  0  0  0  0  0  0  0  0  0  0  0
    4.0484   -2.5364    1.2096 N   0  0  0  0  0  0  0  0  0  0  0  0
    4.8113   -1.4415    1.1276 C   0  0  0  0  0  0  0  0  0  0  0  0
    6.0145   -1.3272    1.8959 N   0  0  0  0  0  0  0  0  0  0  0  0
    4.4992   -0.4051    0.3319 N   0  0  0  0  0  0  0  0  0  0  0  0
    3.3644   -0.4521   -0.4289 C   0  0  0  0  0  0  0  0  0  0  0  0
    3.0500    0.6481   -1.2674 N   0  0  0  0  0  0  0  0  0  0  0  0
    0.0464    0.4864   -0.8874 C   0  0  0  0  0  0  0  0  0  0  0  0
   -0.9635    1.2150   -0.3281 C   0  0  0  0  0  0  0  0  0  0  0  0
   -1.1962    2.5572   -0.6160 O   0  0  0  0  0  0  0  0  0  0  0  0
   -0.3653    3.2378   -1.5303 C   0  0  0  0  0  0  0  0  0  0  0  0
    1.0749    3.2727   -1.1125 C   0  0  0  0  0  0  0  0  0  0  0  0
  1  2  1  0
  2  3  1  0
  3  4  1  0
  4  5  1  0
  5  6  1  0
  6  7  1  0
  7  8  2  0
  8  9  1  0
  9 10  2  0
 10 11  1  0
 11 12  1  0
 12 13  2  0
 13 14  1  0
 14 15  2  0
 15 16  1  0
 15 17  1  0
 17 18  2  0
 18 19  1  0
 10 20  1  0
 20 21  2  0
 21 22  1  0
 22 23  1  0
 23 24  1  0
 21  7  1  0
 18 12  1  0
M  END
>  <zinc_id>  (599) 
ZINC000013532863

>  <ortholog_name>  (599) 
DRTS_PLAFK

>  <gene_name>  (599) 
DRTS_PLAFK

>  <affinity>  (599) 
8.80

>  <chembldocid>  (599) 
17636

>  <title>  (599) 
None

>  <reference.pubmed_id>  (599) 
14711307

>  <reference.doi>  (599) 
None

>  <reference.chembl_id>  (599) 
CHEMBL1148379

>  <reference.journal>  (599) 
J. Med. Chem.

>  <reference.year>  (599) 
2004

$$$$

     RDKit          3D

 24 25  0  0  0  0  0  0  0  0999 V2000
   -5.1073    0.6198   -2.2638 C   0  0  0  0  0  0  0  0  0  0  0  0
   -4.6518    0.5683   -0.8036 C   0  0  0  0  0  0  0  0  0  0  0  0
   -5.6223    1.3339    0.0718 C   0  0  0  0  0  0  0  0  0  0  0  0
   -5.1806    1.2850    1.4958 C   0  0  0  0  0  0  0  0  0  0  0  0
   -3.8169    1.8781    1.7471 C   0  0  0  0  0  0  0  0  0  0  0  0
   -2.8344    1.3391    1.1433 O   0  0  0  0  0  0  0  0  0  0  0  0
   -1.8698    0.6687    0.5993 C   0  0  0  0  0  0  0  0  0  0  0  0
   -1.6702   -0.6823    0.9152 C   0  0  0  0  0  0  0  0  0  0  0  0
   -0.6538   -1.3946    0.3447 C   0  0  0  0  0  0  0  0  0  0  0  0
    0.2238   -0.8403   -0.5616 C   0  0  0  0  0  0  0  0  0  0  0  0
    1.3226   -1.6518   -1.1690 C   0  0  0  0  0  0  0  0  0  0  0  0
    2.5571   -1.5586   -0.3706 C   0  0  0  0  0  0  0  0  0  0  0  0
    2.9195   -2.5909    0.4570 C   0  0  0  0  0  0  0  0  0  0  0  0
    4.0484   -2.5364    1.2096 N   0  0  0  0  0  0  0  0  0  0  0  0
    4.8113   -1.4415    1.1276 C   0  0  0  0  0  0  0  0  0  0  0  0
    6.0145   -1.3272    1.8959 N   0  0  0  0  0  0  0  0  0  0  0  0
    4.4992   -0.4051    0.3319 N   0  0  0  0  0  0  0  0  0  0  0  0
    3.3644   -0.4521   -0.4289 C   0  0  0  0  0  0  0  0  0  0  0  0
    3.0500    0.6481   -1.2674 N   0  0  0  0  0  0  0  0  0  0  0  0
    0.0464    0.4864   -0.8874 C   0  0  0  0  0  0  0  0  0  0  0  0
   -0.9635    1.2150   -0.3281 C   0  0  0  0  0  0  0  0  0  0  0  0
   -1.1962    2.5572   -0.6160 O   0  0  0  0  0  0  0  0  0  0  0  0
   -0.3653    3.2378   -1.5303 C   0  0  0  0  0  0  0  0  0  0  0  0
    1.0749    3.2727   -1.1125 C   0  0  0  0  0  0  0  0  0  0  0  0
  1  2  1  0
  2  3  1  0
  3  4  1  0
  4  5  1  0
  5  6  1  0
  6  7  1  0
  7  8  2  0
  8  9  1  0
  9 10  2  0
 10 11  1  0
 11 12  1  0
 12 13  2  0
 13 14  1  0
 14 15  2  0
 15 16  1  0
 15 17  1  0
 17 18  2  0
 18 19  1  0
 10 20  1  0
 20 21  2  0
 21 22  1  0
 22 23  1  0
 23 24  1  0
 21  7  1  0
 18 12  1  0
M  END
>  <zinc_id>  (600) 
ZINC000013532863

>  <ortholog_name>  (600) 
DRTS_PLAFK

>  <gene_name>  (600) 
DRTS_PLAFK

>  <affinity>  (600) 
5.93

>  <chembldocid>  (600) 
17636

>  <title>  (600) 
None

>  <reference.pubmed_id>  (600) 
14711307

>  <reference.doi>  (600) 
None

>  <reference.chembl_id>  (600) 
CHEMBL1148379

>  <reference.journal>  (600) 
J. Med. Chem.

>  <reference.year>  (600) 
2004

$$$$

     RDKit          3D

 24 25  0  0  0  0  0  0  0  0999 V2000
   -6.9726    3.6197    3.2715 C   0  0  0  0  0  0  0  0  0  0  0  0
   -6.6617    2.4668    2.3656 C   0  0  0  0  0  0  0  0  0  0  0  0
   -5.1790    2.2118    2.3025 C   0  0  0  0  0  0  0  0  0  0  0  0
   -4.8607    1.0443    1.3867 C   0  0  0  0  0  0  0  0  0  0  0  0
   -3.3713    0.8696    1.3893 C   0  0  0  0  0  0  0  0  0  0  0  0
   -2.9378   -0.1873    0.5724 O   0  0  0  0  0  0  0  0  0  0  0  0
   -1.5608   -0.4200    0.5151 C   0  0  0  0  0  0  0  0  0  0  0  0
   -0.6477    0.3383    1.2202 C   0  0  0  0  0  0  0  0  0  0  0  0
    0.7009    0.0707    1.1312 C   0  0  0  0  0  0  0  0  0  0  0  0
    1.2072   -0.9585    0.3416 C   0  0  0  0  0  0  0  0  0  0  0  0
    2.6725   -1.1862    0.3017 C   0  0  0  0  0  0  0  0  0  0  0  0
    3.3723   -0.4130   -0.7417 C   0  0  0  0  0  0  0  0  0  0  0  0
    3.8098   -1.0170   -1.9028 C   0  0  0  0  0  0  0  0  0  0  0  0
    4.4570   -0.3154   -2.8668 N   0  0  0  0  0  0  0  0  0  0  0  0
    4.6989    0.9971   -2.7315 C   0  0  0  0  0  0  0  0  0  0  0  0
    5.3804    1.7136   -3.7559 N   0  0  0  0  0  0  0  0  0  0  0  0
    4.2778    1.6054   -1.6017 N   0  0  0  0  0  0  0  0  0  0  0  0
    3.6286    0.9427   -0.6151 C   0  0  0  0  0  0  0  0  0  0  0  0
    3.1842    1.5689    0.5692 N   0  0  0  0  0  0  0  0  0  0  0  0
    0.2860   -1.7073   -0.3564 C   0  0  0  0  0  0  0  0  0  0  0  0
   -1.0706   -1.4426   -0.2707 C   0  0  0  0  0  0  0  0  0  0  0  0
   -1.9957   -2.2006   -0.9754 O   0  0  0  0  0  0  0  0  0  0  0  0
   -1.5815   -3.2697   -1.8106 C   0  0  0  0  0  0  0  0  0  0  0  0
   -0.8365   -4.3312   -1.0282 C   0  0  0  0  0  0  0  0  0  0  0  0
  1  2  1  0
  2  3  1  0
  3  4  1  0
  4  5  1  0
  5  6  1  0
  6  7  1  0
  7  8  2  0
  8  9  1  0
  9 10  2  0
 10 11  1  0
 11 12  1  0
 12 13  2  0
 13 14  1  0
 14 15  2  0
 15 16  1  0
 15 17  1  0
 17 18  2  0
 18 19  1  0
 10 20  1  0
 20 21  2  0
 21 22  1  0
 22 23  1  0
 23 24  1  0
 21  7  1  0
 18 12  1  0
M  END
>  <zinc_id>  (601) 
ZINC000013532863

>  <ortholog_name>  (601) 
DRTS_PLAFK

>  <gene_name>  (601) 
DRTS_PLAFK

>  <affinity>  (601) 
7.33

>  <chembldocid>  (601) 
17636

>  <title>  (601) 
None

>  <reference.pubmed_id>  (601) 
14711307

>  <reference.doi>  (601) 
None

>  <reference.chembl_id>  (601) 
CHEMBL1148379

>  <reference.journal>  (601) 
J. Med. Chem.

>  <reference.year>  (601) 
2004

$$$$

     RDKit          3D

 24 25  0  0  0  0  0  0  0  0999 V2000
   -6.9726    3.6197    3.2715 C   0  0  0  0  0  0  0  0  0  0  0  0
   -6.6617    2.4668    2.3656 C   0  0  0  0  0  0  0  0  0  0  0  0
   -5.1790    2.2118    2.3025 C   0  0  0  0  0  0  0  0  0  0  0  0
   -4.8607    1.0443    1.3867 C   0  0  0  0  0  0  0  0  0  0  0  0
   -3.3713    0.8696    1.3893 C   0  0  0  0  0  0  0  0  0  0  0  0
   -2.9378   -0.1873    0.5724 O   0  0  0  0  0  0  0  0  0  0  0  0
   -1.5608   -0.4200    0.5151 C   0  0  0  0  0  0  0  0  0  0  0  0
   -0.6477    0.3383    1.2202 C   0  0  0  0  0  0  0  0  0  0  0  0
    0.7009    0.0707    1.1312 C   0  0  0  0  0  0  0  0  0  0  0  0
    1.2072   -0.9585    0.3416 C   0  0  0  0  0  0  0  0  0  0  0  0
    2.6725   -1.1862    0.3017 C   0  0  0  0  0  0  0  0  0  0  0  0
    3.3723   -0.4130   -0.7417 C   0  0  0  0  0  0  0  0  0  0  0  0
    3.8098   -1.0170   -1.9028 C   0  0  0  0  0  0  0  0  0  0  0  0
    4.4570   -0.3154   -2.8668 N   0  0  0  0  0  0  0  0  0  0  0  0
    4.6989    0.9971   -2.7315 C   0  0  0  0  0  0  0  0  0  0  0  0
    5.3804    1.7136   -3.7559 N   0  0  0  0  0  0  0  0  0  0  0  0
    4.2778    1.6054   -1.6017 N   0  0  0  0  0  0  0  0  0  0  0  0
    3.6286    0.9427   -0.6151 C   0  0  0  0  0  0  0  0  0  0  0  0
    3.1842    1.5689    0.5692 N   0  0  0  0  0  0  0  0  0  0  0  0
    0.2860   -1.7073   -0.3564 C   0  0  0  0  0  0  0  0  0  0  0  0
   -1.0706   -1.4426   -0.2707 C   0  0  0  0  0  0  0  0  0  0  0  0
   -1.9957   -2.2006   -0.9754 O   0  0  0  0  0  0  0  0  0  0  0  0
   -1.5815   -3.2697   -1.8106 C   0  0  0  0  0  0  0  0  0  0  0  0
   -0.8365   -4.3312   -1.0282 C   0  0  0  0  0  0  0  0  0  0  0  0
  1  2  1  0
  2  3  1  0
  3  4  1  0
  4  5  1  0
  5  6  1  0
  6  7  1  0
  7  8  2  0
  8  9  1  0
  9 10  2  0
 10 11  1  0
 11 12  1  0
 12 13  2  0
 13 14  1  0
 14 15  2  0
 15 16  1  0
 15 17  1  0
 17 18  2  0
 18 19  1  0
 10 20  1  0
 20 21  2  0
 21 22  1  0
 22 23  1  0
 23 24  1  0
 21  7  1  0
 18 12  1  0
M  END
>  <zinc_id>  (602) 
ZINC000013532863

>  <ortholog_name>  (602) 
DRTS_PLAFK

>  <gene_name>  (602) 
DRTS_PLAFK

>  <affinity>  (602) 
6.04

>  <chembldocid>  (602) 
17636

>  <title>  (602) 
None

>  <reference.pubmed_id>  (602) 
14711307

>  <reference.doi>  (602) 
None

>  <reference.chembl_id>  (602) 
CHEMBL1148379

>  <reference.journal>  (602) 
J. Med. Chem.

>  <reference.year>  (602) 
2004

$$$$

     RDKit          3D

 23 25  0  0  0  0  0  0  0  0999 V2000
   -6.4638   -1.3350    0.3511 N   0  0  0  0  0  0  0  0  0  0  0  0
   -5.2950   -0.5853    0.5900 C   0  0  0  0  0  0  0  0  0  0  0  0
   -4.8735   -0.4459    1.8628 N   0  0  0  0  0  0  0  0  0  0  0  0
   -3.7622    0.2661    2.0932 C   0  0  0  0  0  0  0  0  0  0  0  0
   -3.0621    0.8439    1.0628 C   0  0  0  0  0  0  0  0  0  0  0  0
   -1.8154    1.6451    1.3032 C   0  0  0  0  0  0  0  0  0  0  0  0
   -0.6339    0.7933    0.9090 C   0  0  0  0  0  0  0  0  0  0  0  0
   -0.0357   -0.0105    1.8545 C   0  0  0  0  0  0  0  0  0  0  0  0
    1.0412   -0.8173    1.5857 C   0  0  0  0  0  0  0  0  0  0  0  0
    1.5199   -0.7943    0.2913 C   0  0  0  0  0  0  0  0  0  0  0  0
    0.9305    0.0106   -0.6803 C   0  0  0  0  0  0  0  0  0  0  0  0
    1.4748   -0.0203   -1.9764 O   0  0  0  0  0  0  0  0  0  0  0  0
    2.5643   -0.8162   -2.2962 C   0  0  0  0  0  0  0  0  0  0  0  0
    3.7883   -0.4970   -1.5246 C   0  0  0  0  0  0  0  0  0  0  0  0
    3.7893    0.6384   -0.7137 C   0  0  0  0  0  0  0  0  0  0  0  0
    4.8958    0.9902    0.0287 C   0  0  0  0  0  0  0  0  0  0  0  0
    6.0359    0.2199   -0.0149 C   0  0  0  0  0  0  0  0  0  0  0  0
    6.0381   -0.9048   -0.8171 C   0  0  0  0  0  0  0  0  0  0  0  0
    4.9256   -1.2460   -1.5547 C   0  0  0  0  0  0  0  0  0  0  0  0
   -0.1510    0.8112   -0.3803 C   0  0  0  0  0  0  0  0  0  0  0  0
   -3.5027    0.6936   -0.2278 C   0  0  0  0  0  0  0  0  0  0  0  0
   -2.7880    1.2875   -1.3176 N   0  0  0  0  0  0  0  0  0  0  0  0
   -4.6204   -0.0259   -0.4287 N   0  0  0  0  0  0  0  0  0  0  0  0
  1  2  1  0
  2  3  2  0
  3  4  1  0
  4  5  2  0
  5  6  1  0
  6  7  1  0
  7  8  2  0
  8  9  1  0
  9 10  2  0
 10 11  1  0
 11 12  1  0
 12 13  1  0
 13 14  1  0
 14 15  2  0
 15 16  1  0
 16 17  2  0
 17 18  1  0
 18 19  2  0
 11 20  2  0
  5 21  1  0
 21 22  1  0
 21 23  2  0
 23  2  1  0
 20  7  1  0
 19 14  1  0
M  END
>  <zinc_id>  (603) 
ZINC000013532872

>  <ortholog_name>  (603) 
DRTS_PLAFK

>  <gene_name>  (603) 
DRTS_PLAFK

>  <affinity>  (603) 
6.95

>  <chembldocid>  (603) 
17636

>  <title>  (603) 
None

>  <reference.pubmed_id>  (603) 
14711307

>  <reference.doi>  (603) 
None

>  <reference.chembl_id>  (603) 
CHEMBL1148379

>  <reference.journal>  (603) 
J. Med. Chem.

>  <reference.year>  (603) 
2004

$$$$

     RDKit          3D

 23 25  0  0  0  0  0  0  0  0999 V2000
   -6.4638   -1.3350    0.3511 N   0  0  0  0  0  0  0  0  0  0  0  0
   -5.2950   -0.5853    0.5900 C   0  0  0  0  0  0  0  0  0  0  0  0
   -4.8735   -0.4459    1.8628 N   0  0  0  0  0  0  0  0  0  0  0  0
   -3.7622    0.2661    2.0932 C   0  0  0  0  0  0  0  0  0  0  0  0
   -3.0621    0.8439    1.0628 C   0  0  0  0  0  0  0  0  0  0  0  0
   -1.8154    1.6451    1.3032 C   0  0  0  0  0  0  0  0  0  0  0  0
   -0.6339    0.7933    0.9090 C   0  0  0  0  0  0  0  0  0  0  0  0
   -0.0357   -0.0105    1.8545 C   0  0  0  0  0  0  0  0  0  0  0  0
    1.0412   -0.8173    1.5857 C   0  0  0  0  0  0  0  0  0  0  0  0
    1.5199   -0.7943    0.2913 C   0  0  0  0  0  0  0  0  0  0  0  0
    0.9305    0.0106   -0.6803 C   0  0  0  0  0  0  0  0  0  0  0  0
    1.4748   -0.0203   -1.9764 O   0  0  0  0  0  0  0  0  0  0  0  0
    2.5643   -0.8162   -2.2962 C   0  0  0  0  0  0  0  0  0  0  0  0
    3.7883   -0.4970   -1.5246 C   0  0  0  0  0  0  0  0  0  0  0  0
    3.7893    0.6384   -0.7137 C   0  0  0  0  0  0  0  0  0  0  0  0
    4.8958    0.9902    0.0287 C   0  0  0  0  0  0  0  0  0  0  0  0
    6.0359    0.2199   -0.0149 C   0  0  0  0  0  0  0  0  0  0  0  0
    6.0381   -0.9048   -0.8171 C   0  0  0  0  0  0  0  0  0  0  0  0
    4.9256   -1.2460   -1.5547 C   0  0  0  0  0  0  0  0  0  0  0  0
   -0.1510    0.8112   -0.3803 C   0  0  0  0  0  0  0  0  0  0  0  0
   -3.5027    0.6936   -0.2278 C   0  0  0  0  0  0  0  0  0  0  0  0
   -2.7880    1.2875   -1.3176 N   0  0  0  0  0  0  0  0  0  0  0  0
   -4.6204   -0.0259   -0.4287 N   0  0  0  0  0  0  0  0  0  0  0  0
  1  2  1  0
  2  3  2  0
  3  4  1  0
  4  5  2  0
  5  6  1  0
  6  7  1  0
  7  8  2  0
  8  9  1  0
  9 10  2  0
 10 11  1  0
 11 12  1  0
 12 13  1  0
 13 14  1  0
 14 15  2  0
 15 16  1  0
 16 17  2  0
 17 18  1  0
 18 19  2  0
 11 20  2  0
  5 21  1  0
 21 22  1  0
 21 23  2  0
 23  2  1  0
 20  7  1  0
 19 14  1  0
M  END
>  <zinc_id>  (604) 
ZINC000013532872

>  <ortholog_name>  (604) 
DRTS_PLAFK

>  <gene_name>  (604) 
DRTS_PLAFK

>  <affinity>  (604) 
5.64

>  <chembldocid>  (604) 
17636

>  <title>  (604) 
None

>  <reference.pubmed_id>  (604) 
14711307

>  <reference.doi>  (604) 
None

>  <reference.chembl_id>  (604) 
CHEMBL1148379

>  <reference.journal>  (604) 
J. Med. Chem.

>  <reference.year>  (604) 
2004

$$$$

     RDKit          3D

 23 25  0  0  0  0  0  0  0  0999 V2000
   -6.4638   -1.3350    0.3511 N   0  0  0  0  0  0  0  0  0  0  0  0
   -5.2950   -0.5853    0.5900 C   0  0  0  0  0  0  0  0  0  0  0  0
   -4.8735   -0.4459    1.8628 N   0  0  0  0  0  0  0  0  0  0  0  0
   -3.7622    0.2661    2.0932 C   0  0  0  0  0  0  0  0  0  0  0  0
   -3.0621    0.8439    1.0628 C   0  0  0  0  0  0  0  0  0  0  0  0
   -1.8154    1.6451    1.3032 C   0  0  0  0  0  0  0  0  0  0  0  0
   -0.6339    0.7933    0.9090 C   0  0  0  0  0  0  0  0  0  0  0  0
   -0.0357   -0.0105    1.8545 C   0  0  0  0  0  0  0  0  0  0  0  0
    1.0412   -0.8173    1.5857 C   0  0  0  0  0  0  0  0  0  0  0  0
    1.5199   -0.7943    0.2913 C   0  0  0  0  0  0  0  0  0  0  0  0
    0.9305    0.0106   -0.6803 C   0  0  0  0  0  0  0  0  0  0  0  0
    1.4748   -0.0203   -1.9764 O   0  0  0  0  0  0  0  0  0  0  0  0
    2.5643   -0.8162   -2.2962 C   0  0  0  0  0  0  0  0  0  0  0  0
    3.7883   -0.4970   -1.5246 C   0  0  0  0  0  0  0  0  0  0  0  0
    3.7893    0.6384   -0.7137 C   0  0  0  0  0  0  0  0  0  0  0  0
    4.8958    0.9902    0.0287 C   0  0  0  0  0  0  0  0  0  0  0  0
    6.0359    0.2199   -0.0149 C   0  0  0  0  0  0  0  0  0  0  0  0
    6.0381   -0.9048   -0.8171 C   0  0  0  0  0  0  0  0  0  0  0  0
    4.9256   -1.2460   -1.5547 C   0  0  0  0  0  0  0  0  0  0  0  0
   -0.1510    0.8112   -0.3803 C   0  0  0  0  0  0  0  0  0  0  0  0
   -3.5027    0.6936   -0.2278 C   0  0  0  0  0  0  0  0  0  0  0  0
   -2.7880    1.2875   -1.3176 N   0  0  0  0  0  0  0  0  0  0  0  0
   -4.6204   -0.0259   -0.4287 N   0  0  0  0  0  0  0  0  0  0  0  0
  1  2  1  0
  2  3  2  0
  3  4  1  0
  4  5  2  0
  5  6  1  0
  6  7  1  0
  7  8  2  0
  8  9  1  0
  9 10  2  0
 10 11  1  0
 11 12  1  0
 12 13  1  0
 13 14  1  0
 14 15  2  0
 15 16  1  0
 16 17  2  0
 17 18  1  0
 18 19  2  0
 11 20  2  0
  5 21  1  0
 21 22  1  0
 21 23  2  0
 23  2  1  0
 20  7  1  0
 19 14  1  0
M  END
>  <zinc_id>  (605) 
ZINC000013532872

>  <ortholog_name>  (605) 
DRTS_PLAFK

>  <gene_name>  (605) 
DRTS_PLAFK

>  <affinity>  (605) 
7.52

>  <chembldocid>  (605) 
17636

>  <title>  (605) 
None

>  <reference.pubmed_id>  (605) 
14711307

>  <reference.doi>  (605) 
None

>  <reference.chembl_id>  (605) 
CHEMBL1148379

>  <reference.journal>  (605) 
J. Med. Chem.

>  <reference.year>  (605) 
2004

$$$$

     RDKit          3D

 23 25  0  0  0  0  0  0  0  0999 V2000
   -6.4638   -1.3350    0.3511 N   0  0  0  0  0  0  0  0  0  0  0  0
   -5.2950   -0.5853    0.5900 C   0  0  0  0  0  0  0  0  0  0  0  0
   -4.8735   -0.4459    1.8628 N   0  0  0  0  0  0  0  0  0  0  0  0
   -3.7622    0.2661    2.0932 C   0  0  0  0  0  0  0  0  0  0  0  0
   -3.0621    0.8439    1.0628 C   0  0  0  0  0  0  0  0  0  0  0  0
   -1.8154    1.6451    1.3032 C   0  0  0  0  0  0  0  0  0  0  0  0
   -0.6339    0.7933    0.9090 C   0  0  0  0  0  0  0  0  0  0  0  0
   -0.0357   -0.0105    1.8545 C   0  0  0  0  0  0  0  0  0  0  0  0
    1.0412   -0.8173    1.5857 C   0  0  0  0  0  0  0  0  0  0  0  0
    1.5199   -0.7943    0.2913 C   0  0  0  0  0  0  0  0  0  0  0  0
    0.9305    0.0106   -0.6803 C   0  0  0  0  0  0  0  0  0  0  0  0
    1.4748   -0.0203   -1.9764 O   0  0  0  0  0  0  0  0  0  0  0  0
    2.5643   -0.8162   -2.2962 C   0  0  0  0  0  0  0  0  0  0  0  0
    3.7883   -0.4970   -1.5246 C   0  0  0  0  0  0  0  0  0  0  0  0
    3.7893    0.6384   -0.7137 C   0  0  0  0  0  0  0  0  0  0  0  0
    4.8958    0.9902    0.0287 C   0  0  0  0  0  0  0  0  0  0  0  0
    6.0359    0.2199   -0.0149 C   0  0  0  0  0  0  0  0  0  0  0  0
    6.0381   -0.9048   -0.8171 C   0  0  0  0  0  0  0  0  0  0  0  0
    4.9256   -1.2460   -1.5547 C   0  0  0  0  0  0  0  0  0  0  0  0
   -0.1510    0.8112   -0.3803 C   0  0  0  0  0  0  0  0  0  0  0  0
   -3.5027    0.6936   -0.2278 C   0  0  0  0  0  0  0  0  0  0  0  0
   -2.7880    1.2875   -1.3176 N   0  0  0  0  0  0  0  0  0  0  0  0
   -4.6204   -0.0259   -0.4287 N   0  0  0  0  0  0  0  0  0  0  0  0
  1  2  1  0
  2  3  2  0
  3  4  1  0
  4  5  2  0
  5  6  1  0
  6  7  1  0
  7  8  2  0
  8  9  1  0
  9 10  2  0
 10 11  1  0
 11 12  1  0
 12 13  1  0
 13 14  1  0
 14 15  2  0
 15 16  1  0
 16 17  2  0
 17 18  1  0
 18 19  2  0
 11 20  2  0
  5 21  1  0
 21 22  1  0
 21 23  2  0
 23  2  1  0
 20  7  1  0
 19 14  1  0
M  END
>  <zinc_id>  (606) 
ZINC000013532872

>  <ortholog_name>  (606) 
DRTS_PLAFK

>  <gene_name>  (606) 
DRTS_PLAFK

>  <affinity>  (606) 
5.48

>  <chembldocid>  (606) 
17636

>  <title>  (606) 
None

>  <reference.pubmed_id>  (606) 
14711307

>  <reference.doi>  (606) 
None

>  <reference.chembl_id>  (606) 
CHEMBL1148379

>  <reference.journal>  (606) 
J. Med. Chem.

>  <reference.year>  (606) 
2004

$$$$

     RDKit          3D

 23 25  0  0  0  0  0  0  0  0999 V2000
   -6.4638   -1.3350    0.3511 N   0  0  0  0  0  0  0  0  0  0  0  0
   -5.2950   -0.5853    0.5900 C   0  0  0  0  0  0  0  0  0  0  0  0
   -4.8735   -0.4459    1.8628 N   0  0  0  0  0  0  0  0  0  0  0  0
   -3.7622    0.2661    2.0932 C   0  0  0  0  0  0  0  0  0  0  0  0
   -3.0621    0.8439    1.0628 C   0  0  0  0  0  0  0  0  0  0  0  0
   -1.8154    1.6451    1.3032 C   0  0  0  0  0  0  0  0  0  0  0  0
   -0.6339    0.7933    0.9090 C   0  0  0  0  0  0  0  0  0  0  0  0
   -0.0357   -0.0105    1.8545 C   0  0  0  0  0  0  0  0  0  0  0  0
    1.0412   -0.8173    1.5857 C   0  0  0  0  0  0  0  0  0  0  0  0
    1.5199   -0.7943    0.2913 C   0  0  0  0  0  0  0  0  0  0  0  0
    0.9305    0.0106   -0.6803 C   0  0  0  0  0  0  0  0  0  0  0  0
    1.4748   -0.0203   -1.9764 O   0  0  0  0  0  0  0  0  0  0  0  0
    2.5643   -0.8162   -2.2962 C   0  0  0  0  0  0  0  0  0  0  0  0
    3.7883   -0.4970   -1.5246 C   0  0  0  0  0  0  0  0  0  0  0  0
    3.7893    0.6384   -0.7137 C   0  0  0  0  0  0  0  0  0  0  0  0
    4.8958    0.9902    0.0287 C   0  0  0  0  0  0  0  0  0  0  0  0
    6.0359    0.2199   -0.0149 C   0  0  0  0  0  0  0  0  0  0  0  0
    6.0381   -0.9048   -0.8171 C   0  0  0  0  0  0  0  0  0  0  0  0
    4.9256   -1.2460   -1.5547 C   0  0  0  0  0  0  0  0  0  0  0  0
   -0.1510    0.8112   -0.3803 C   0  0  0  0  0  0  0  0  0  0  0  0
   -3.5027    0.6936   -0.2278 C   0  0  0  0  0  0  0  0  0  0  0  0
   -2.7880    1.2875   -1.3176 N   0  0  0  0  0  0  0  0  0  0  0  0
   -4.6204   -0.0259   -0.4287 N   0  0  0  0  0  0  0  0  0  0  0  0
  1  2  1  0
  2  3  2  0
  3  4  1  0
  4  5  2  0
  5  6  1  0
  6  7  1  0
  7  8  2  0
  8  9  1  0
  9 10  2  0
 10 11  1  0
 11 12  1  0
 12 13  1  0
 13 14  1  0
 14 15  2  0
 15 16  1  0
 16 17  2  0
 17 18  1  0
 18 19  2  0
 11 20  2  0
  5 21  1  0
 21 22  1  0
 21 23  2  0
 23  2  1  0
 20  7  1  0
 19 14  1  0
M  END
>  <zinc_id>  (607) 
ZINC000013532872

>  <ortholog_name>  (607) 
DRTS_PLAFK

>  <gene_name>  (607) 
DRTS_PLAFK

>  <affinity>  (607) 
5.45

>  <chembldocid>  (607) 
17636

>  <title>  (607) 
None

>  <reference.pubmed_id>  (607) 
14711307

>  <reference.doi>  (607) 
None

>  <reference.chembl_id>  (607) 
CHEMBL1148379

>  <reference.journal>  (607) 
J. Med. Chem.

>  <reference.year>  (607) 
2004

$$$$

     RDKit          3D

 23 25  0  0  0  0  0  0  0  0999 V2000
   -6.4638   -1.3350    0.3511 N   0  0  0  0  0  0  0  0  0  0  0  0
   -5.2950   -0.5853    0.5900 C   0  0  0  0  0  0  0  0  0  0  0  0
   -4.8735   -0.4459    1.8628 N   0  0  0  0  0  0  0  0  0  0  0  0
   -3.7622    0.2661    2.0932 C   0  0  0  0  0  0  0  0  0  0  0  0
   -3.0621    0.8439    1.0628 C   0  0  0  0  0  0  0  0  0  0  0  0
   -1.8154    1.6451    1.3032 C   0  0  0  0  0  0  0  0  0  0  0  0
   -0.6339    0.7933    0.9090 C   0  0  0  0  0  0  0  0  0  0  0  0
   -0.0357   -0.0105    1.8545 C   0  0  0  0  0  0  0  0  0  0  0  0
    1.0412   -0.8173    1.5857 C   0  0  0  0  0  0  0  0  0  0  0  0
    1.5199   -0.7943    0.2913 C   0  0  0  0  0  0  0  0  0  0  0  0
    0.9305    0.0106   -0.6803 C   0  0  0  0  0  0  0  0  0  0  0  0
    1.4748   -0.0203   -1.9764 O   0  0  0  0  0  0  0  0  0  0  0  0
    2.5643   -0.8162   -2.2962 C   0  0  0  0  0  0  0  0  0  0  0  0
    3.7883   -0.4970   -1.5246 C   0  0  0  0  0  0  0  0  0  0  0  0
    3.7893    0.6384   -0.7137 C   0  0  0  0  0  0  0  0  0  0  0  0
    4.8958    0.9902    0.0287 C   0  0  0  0  0  0  0  0  0  0  0  0
    6.0359    0.2199   -0.0149 C   0  0  0  0  0  0  0  0  0  0  0  0
    6.0381   -0.9048   -0.8171 C   0  0  0  0  0  0  0  0  0  0  0  0
    4.9256   -1.2460   -1.5547 C   0  0  0  0  0  0  0  0  0  0  0  0
   -0.1510    0.8112   -0.3803 C   0  0  0  0  0  0  0  0  0  0  0  0
   -3.5027    0.6936   -0.2278 C   0  0  0  0  0  0  0  0  0  0  0  0
   -2.7880    1.2875   -1.3176 N   0  0  0  0  0  0  0  0  0  0  0  0
   -4.6204   -0.0259   -0.4287 N   0  0  0  0  0  0  0  0  0  0  0  0
  1  2  1  0
  2  3  2  0
  3  4  1  0
  4  5  2  0
  5  6  1  0
  6  7  1  0
  7  8  2  0
  8  9  1  0
  9 10  2  0
 10 11  1  0
 11 12  1  0
 12 13  1  0
 13 14  1  0
 14 15  2  0
 15 16  1  0
 16 17  2  0
 17 18  1  0
 18 19  2  0
 11 20  2  0
  5 21  1  0
 21 22  1  0
 21 23  2  0
 23  2  1  0
 20  7  1  0
 19 14  1  0
M  END
>  <zinc_id>  (608) 
ZINC000013532872

>  <ortholog_name>  (608) 
DRTS_PLAFK

>  <gene_name>  (608) 
DRTS_PLAFK

>  <affinity>  (608) 
6.34

>  <chembldocid>  (608) 
17636

>  <title>  (608) 
None

>  <reference.pubmed_id>  (608) 
14711307

>  <reference.doi>  (608) 
None

>  <reference.chembl_id>  (608) 
CHEMBL1148379

>  <reference.journal>  (608) 
J. Med. Chem.

>  <reference.year>  (608) 
2004

$$$$

     RDKit          3D

 23 25  0  0  0  0  0  0  0  0999 V2000
   -6.4638   -1.3350    0.3511 N   0  0  0  0  0  0  0  0  0  0  0  0
   -5.2950   -0.5853    0.5900 C   0  0  0  0  0  0  0  0  0  0  0  0
   -4.8735   -0.4459    1.8628 N   0  0  0  0  0  0  0  0  0  0  0  0
   -3.7622    0.2661    2.0932 C   0  0  0  0  0  0  0  0  0  0  0  0
   -3.0621    0.8439    1.0628 C   0  0  0  0  0  0  0  0  0  0  0  0
   -1.8154    1.6451    1.3032 C   0  0  0  0  0  0  0  0  0  0  0  0
   -0.6339    0.7933    0.9090 C   0  0  0  0  0  0  0  0  0  0  0  0
   -0.0357   -0.0105    1.8545 C   0  0  0  0  0  0  0  0  0  0  0  0
    1.0412   -0.8173    1.5857 C   0  0  0  0  0  0  0  0  0  0  0  0
    1.5199   -0.7943    0.2913 C   0  0  0  0  0  0  0  0  0  0  0  0
    0.9305    0.0106   -0.6803 C   0  0  0  0  0  0  0  0  0  0  0  0
    1.4748   -0.0203   -1.9764 O   0  0  0  0  0  0  0  0  0  0  0  0
    2.5643   -0.8162   -2.2962 C   0  0  0  0  0  0  0  0  0  0  0  0
    3.7883   -0.4970   -1.5246 C   0  0  0  0  0  0  0  0  0  0  0  0
    3.7893    0.6384   -0.7137 C   0  0  0  0  0  0  0  0  0  0  0  0
    4.8958    0.9902    0.0287 C   0  0  0  0  0  0  0  0  0  0  0  0
    6.0359    0.2199   -0.0149 C   0  0  0  0  0  0  0  0  0  0  0  0
    6.0381   -0.9048   -0.8171 C   0  0  0  0  0  0  0  0  0  0  0  0
    4.9256   -1.2460   -1.5547 C   0  0  0  0  0  0  0  0  0  0  0  0
   -0.1510    0.8112   -0.3803 C   0  0  0  0  0  0  0  0  0  0  0  0
   -3.5027    0.6936   -0.2278 C   0  0  0  0  0  0  0  0  0  0  0  0
   -2.7880    1.2875   -1.3176 N   0  0  0  0  0  0  0  0  0  0  0  0
   -4.6204   -0.0259   -0.4287 N   0  0  0  0  0  0  0  0  0  0  0  0
  1  2  1  0
  2  3  2  0
  3  4  1  0
  4  5  2  0
  5  6  1  0
  6  7  1  0
  7  8  2  0
  8  9  1  0
  9 10  2  0
 10 11  1  0
 11 12  1  0
 12 13  1  0
 13 14  1  0
 14 15  2  0
 15 16  1  0
 16 17  2  0
 17 18  1  0
 18 19  2  0
 11 20  2  0
  5 21  1  0
 21 22  1  0
 21 23  2  0
 23  2  1  0
 20  7  1  0
 19 14  1  0
M  END
>  <zinc_id>  (609) 
ZINC000013532872

>  <ortholog_name>  (609) 
DRTS_PLAFK

>  <gene_name>  (609) 
DRTS_PLAFK

>  <affinity>  (609) 
6.29

>  <chembldocid>  (609) 
17636

>  <title>  (609) 
None

>  <reference.pubmed_id>  (609) 
14711307

>  <reference.doi>  (609) 
None

>  <reference.chembl_id>  (609) 
CHEMBL1148379

>  <reference.journal>  (609) 
J. Med. Chem.

>  <reference.year>  (609) 
2004

$$$$

     RDKit          3D

 23 25  0  0  0  0  0  0  0  0999 V2000
   -6.4638   -1.3350    0.3511 N   0  0  0  0  0  0  0  0  0  0  0  0
   -5.2950   -0.5853    0.5900 C   0  0  0  0  0  0  0  0  0  0  0  0
   -4.8735   -0.4459    1.8628 N   0  0  0  0  0  0  0  0  0  0  0  0
   -3.7622    0.2661    2.0932 C   0  0  0  0  0  0  0  0  0  0  0  0
   -3.0621    0.8439    1.0628 C   0  0  0  0  0  0  0  0  0  0  0  0
   -1.8154    1.6451    1.3032 C   0  0  0  0  0  0  0  0  0  0  0  0
   -0.6339    0.7933    0.9090 C   0  0  0  0  0  0  0  0  0  0  0  0
   -0.0357   -0.0105    1.8545 C   0  0  0  0  0  0  0  0  0  0  0  0
    1.0412   -0.8173    1.5857 C   0  0  0  0  0  0  0  0  0  0  0  0
    1.5199   -0.7943    0.2913 C   0  0  0  0  0  0  0  0  0  0  0  0
    0.9305    0.0106   -0.6803 C   0  0  0  0  0  0  0  0  0  0  0  0
    1.4748   -0.0203   -1.9764 O   0  0  0  0  0  0  0  0  0  0  0  0
    2.5643   -0.8162   -2.2962 C   0  0  0  0  0  0  0  0  0  0  0  0
    3.7883   -0.4970   -1.5246 C   0  0  0  0  0  0  0  0  0  0  0  0
    3.7893    0.6384   -0.7137 C   0  0  0  0  0  0  0  0  0  0  0  0
    4.8958    0.9902    0.0287 C   0  0  0  0  0  0  0  0  0  0  0  0
    6.0359    0.2199   -0.0149 C   0  0  0  0  0  0  0  0  0  0  0  0
    6.0381   -0.9048   -0.8171 C   0  0  0  0  0  0  0  0  0  0  0  0
    4.9256   -1.2460   -1.5547 C   0  0  0  0  0  0  0  0  0  0  0  0
   -0.1510    0.8112   -0.3803 C   0  0  0  0  0  0  0  0  0  0  0  0
   -3.5027    0.6936   -0.2278 C   0  0  0  0  0  0  0  0  0  0  0  0
   -2.7880    1.2875   -1.3176 N   0  0  0  0  0  0  0  0  0  0  0  0
   -4.6204   -0.0259   -0.4287 N   0  0  0  0  0  0  0  0  0  0  0  0
  1  2  1  0
  2  3  2  0
  3  4  1  0
  4  5  2  0
  5  6  1  0
  6  7  1  0
  7  8  2  0
  8  9  1  0
  9 10  2  0
 10 11  1  0
 11 12  1  0
 12 13  1  0
 13 14  1  0
 14 15  2  0
 15 16  1  0
 16 17  2  0
 17 18  1  0
 18 19  2  0
 11 20  2  0
  5 21  1  0
 21 22  1  0
 21 23  2  0
 23  2  1  0
 20  7  1  0
 19 14  1  0
M  END
>  <zinc_id>  (610) 
ZINC000013532872

>  <ortholog_name>  (610) 
DRTS_PLAFK

>  <gene_name>  (610) 
DRTS_PLAFK

>  <affinity>  (610) 
8.20

>  <chembldocid>  (610) 
17636

>  <title>  (610) 
None

>  <reference.pubmed_id>  (610) 
14711307

>  <reference.doi>  (610) 
None

>  <reference.chembl_id>  (610) 
CHEMBL1148379

>  <reference.journal>  (610) 
J. Med. Chem.

>  <reference.year>  (610) 
2004

$$$$

     RDKit          3D

 23 25  0  0  0  0  0  0  0  0999 V2000
   -6.4638   -1.3350    0.3511 N   0  0  0  0  0  0  0  0  0  0  0  0
   -5.2950   -0.5853    0.5900 C   0  0  0  0  0  0  0  0  0  0  0  0
   -4.8735   -0.4459    1.8628 N   0  0  0  0  0  0  0  0  0  0  0  0
   -3.7622    0.2661    2.0932 C   0  0  0  0  0  0  0  0  0  0  0  0
   -3.0621    0.8439    1.0628 C   0  0  0  0  0  0  0  0  0  0  0  0
   -1.8154    1.6451    1.3032 C   0  0  0  0  0  0  0  0  0  0  0  0
   -0.6339    0.7933    0.9090 C   0  0  0  0  0  0  0  0  0  0  0  0
   -0.0357   -0.0105    1.8545 C   0  0  0  0  0  0  0  0  0  0  0  0
    1.0412   -0.8173    1.5857 C   0  0  0  0  0  0  0  0  0  0  0  0
    1.5199   -0.7943    0.2913 C   0  0  0  0  0  0  0  0  0  0  0  0
    0.9305    0.0106   -0.6803 C   0  0  0  0  0  0  0  0  0  0  0  0
    1.4748   -0.0203   -1.9764 O   0  0  0  0  0  0  0  0  0  0  0  0
    2.5643   -0.8162   -2.2962 C   0  0  0  0  0  0  0  0  0  0  0  0
    3.7883   -0.4970   -1.5246 C   0  0  0  0  0  0  0  0  0  0  0  0
    3.7893    0.6384   -0.7137 C   0  0  0  0  0  0  0  0  0  0  0  0
    4.8958    0.9902    0.0287 C   0  0  0  0  0  0  0  0  0  0  0  0
    6.0359    0.2199   -0.0149 C   0  0  0  0  0  0  0  0  0  0  0  0
    6.0381   -0.9048   -0.8171 C   0  0  0  0  0  0  0  0  0  0  0  0
    4.9256   -1.2460   -1.5547 C   0  0  0  0  0  0  0  0  0  0  0  0
   -0.1510    0.8112   -0.3803 C   0  0  0  0  0  0  0  0  0  0  0  0
   -3.5027    0.6936   -0.2278 C   0  0  0  0  0  0  0  0  0  0  0  0
   -2.7880    1.2875   -1.3176 N   0  0  0  0  0  0  0  0  0  0  0  0
   -4.6204   -0.0259   -0.4287 N   0  0  0  0  0  0  0  0  0  0  0  0
  1  2  1  0
  2  3  2  0
  3  4  1  0
  4  5  2  0
  5  6  1  0
  6  7  1  0
  7  8  2  0
  8  9  1  0
  9 10  2  0
 10 11  1  0
 11 12  1  0
 12 13  1  0
 13 14  1  0
 14 15  2  0
 15 16  1  0
 16 17  2  0
 17 18  1  0
 18 19  2  0
 11 20  2  0
  5 21  1  0
 21 22  1  0
 21 23  2  0
 23  2  1  0
 20  7  1  0
 19 14  1  0
M  END
>  <zinc_id>  (611) 
ZINC000013532872

>  <ortholog_name>  (611) 
DRTS_PLAFK

>  <gene_name>  (611) 
DRTS_PLAFK

>  <affinity>  (611) 
7.22

>  <chembldocid>  (611) 
17636

>  <title>  (611) 
None

>  <reference.pubmed_id>  (611) 
14711307

>  <reference.doi>  (611) 
None

>  <reference.chembl_id>  (611) 
CHEMBL1148379

>  <reference.journal>  (611) 
J. Med. Chem.

>  <reference.year>  (611) 
2004

$$$$

     RDKit          3D

 22 24  0  0  0  0  0  0  0  0999 V2000
   -5.7078    2.4673   -1.0587 N   0  0  0  0  0  0  0  0  0  0  0  0
   -4.8041    1.5159   -0.5259 C   0  0  0  0  0  0  0  0  0  0  0  0
   -4.9210    0.2431   -0.9456 N   0  0  0  0  0  0  0  0  0  0  0  0
   -4.1158   -0.7486   -0.5073 C   0  0  0  0  0  0  0  0  0  0  0  0
   -3.1374   -0.4306    0.4083 C   0  0  0  0  0  0  0  0  0  0  0  0
   -2.2594   -1.5199    0.8843 C   0  0  0  0  0  0  0  0  0  0  0  0
   -0.9173   -1.4466    0.2473 C   0  0  0  0  0  0  0  0  0  0  0  0
   -0.6132   -2.0877   -0.9360 C   0  0  0  0  0  0  0  0  0  0  0  0
    0.6225   -2.0223   -1.5253 C   0  0  0  0  0  0  0  0  0  0  0  0
    1.5850   -1.2784   -0.8897 C   0  0  0  0  0  0  0  0  0  0  0  0
    1.3301   -0.6217    0.2907 C   0  0  0  0  0  0  0  0  0  0  0  0
    2.2975    0.1359    0.9451 O   0  0  0  0  0  0  0  0  0  0  0  0
    3.5838    0.3073    0.4947 C   0  0  0  0  0  0  0  0  0  0  0  0
    3.9521    1.3291   -0.3375 C   0  0  0  0  0  0  0  0  0  0  0  0
    5.2546    1.4785   -0.7760 C   0  0  0  0  0  0  0  0  0  0  0  0
    6.1932    0.5742   -0.3603 C   0  0  0  0  0  0  0  0  0  0  0  0
    5.8537   -0.4594    0.4733 C   0  0  0  0  0  0  0  0  0  0  0  0
    4.5512   -0.5808    0.8915 C   0  0  0  0  0  0  0  0  0  0  0  0
    0.0849   -0.7144    0.8422 C   0  0  0  0  0  0  0  0  0  0  0  0
   -2.9955    0.8605    0.8540 C   0  0  0  0  0  0  0  0  0  0  0  0
   -1.9878    1.1991    1.7998 N   0  0  0  0  0  0  0  0  0  0  0  0
   -3.8491    1.7994    0.3610 N   0  0  0  0  0  0  0  0  0  0  0  0
  1  2  1  0
  2  3  2  0
  3  4  1  0
  4  5  2  0
  5  6  1  0
  6  7  1  0
  7  8  2  0
  8  9  1  0
  9 10  2  0
 10 11  1  0
 11 12  1  0
 12 13  1  0
 13 14  2  0
 14 15  1  0
 15 16  2  0
 16 17  1  0
 17 18  2  0
 11 19  2  0
  5 20  1  0
 20 21  1  0
 20 22  2  0
 22  2  1  0
 19  7  1  0
 18 13  1  0
M  END
>  <zinc_id>  (612) 
ZINC000013532877

>  <ortholog_name>  (612) 
DRTS_PLAFK

>  <gene_name>  (612) 
DRTS_PLAFK

>  <affinity>  (612) 
6.82

>  <chembldocid>  (612) 
17636

>  <title>  (612) 
None

>  <reference.pubmed_id>  (612) 
14711307

>  <reference.doi>  (612) 
None

>  <reference.chembl_id>  (612) 
CHEMBL1148379

>  <reference.journal>  (612) 
J. Med. Chem.

>  <reference.year>  (612) 
2004

$$$$

     RDKit          3D

 22 24  0  0  0  0  0  0  0  0999 V2000
   -5.7078    2.4673   -1.0587 N   0  0  0  0  0  0  0  0  0  0  0  0
   -4.8041    1.5159   -0.5259 C   0  0  0  0  0  0  0  0  0  0  0  0
   -4.9210    0.2431   -0.9456 N   0  0  0  0  0  0  0  0  0  0  0  0
   -4.1158   -0.7486   -0.5073 C   0  0  0  0  0  0  0  0  0  0  0  0
   -3.1374   -0.4306    0.4083 C   0  0  0  0  0  0  0  0  0  0  0  0
   -2.2594   -1.5199    0.8843 C   0  0  0  0  0  0  0  0  0  0  0  0
   -0.9173   -1.4466    0.2473 C   0  0  0  0  0  0  0  0  0  0  0  0
   -0.6132   -2.0877   -0.9360 C   0  0  0  0  0  0  0  0  0  0  0  0
    0.6225   -2.0223   -1.5253 C   0  0  0  0  0  0  0  0  0  0  0  0
    1.5850   -1.2784   -0.8897 C   0  0  0  0  0  0  0  0  0  0  0  0
    1.3301   -0.6217    0.2907 C   0  0  0  0  0  0  0  0  0  0  0  0
    2.2975    0.1359    0.9451 O   0  0  0  0  0  0  0  0  0  0  0  0
    3.5838    0.3073    0.4947 C   0  0  0  0  0  0  0  0  0  0  0  0
    3.9521    1.3291   -0.3375 C   0  0  0  0  0  0  0  0  0  0  0  0
    5.2546    1.4785   -0.7760 C   0  0  0  0  0  0  0  0  0  0  0  0
    6.1932    0.5742   -0.3603 C   0  0  0  0  0  0  0  0  0  0  0  0
    5.8537   -0.4594    0.4733 C   0  0  0  0  0  0  0  0  0  0  0  0
    4.5512   -0.5808    0.8915 C   0  0  0  0  0  0  0  0  0  0  0  0
    0.0849   -0.7144    0.8422 C   0  0  0  0  0  0  0  0  0  0  0  0
   -2.9955    0.8605    0.8540 C   0  0  0  0  0  0  0  0  0  0  0  0
   -1.9878    1.1991    1.7998 N   0  0  0  0  0  0  0  0  0  0  0  0
   -3.8491    1.7994    0.3610 N   0  0  0  0  0  0  0  0  0  0  0  0
  1  2  1  0
  2  3  2  0
  3  4  1  0
  4  5  2  0
  5  6  1  0
  6  7  1  0
  7  8  2  0
  8  9  1  0
  9 10  2  0
 10 11  1  0
 11 12  1  0
 12 13  1  0
 13 14  2  0
 14 15  1  0
 15 16  2  0
 16 17  1  0
 17 18  2  0
 11 19  2  0
  5 20  1  0
 20 21  1  0
 20 22  2  0
 22  2  1  0
 19  7  1  0
 18 13  1  0
M  END
>  <zinc_id>  (613) 
ZINC000013532877

>  <ortholog_name>  (613) 
DRTS_PLAFK

>  <gene_name>  (613) 
DRTS_PLAFK

>  <affinity>  (613) 
6.79

>  <chembldocid>  (613) 
17636

>  <title>  (613) 
None

>  <reference.pubmed_id>  (613) 
14711307

>  <reference.doi>  (613) 
None

>  <reference.chembl_id>  (613) 
CHEMBL1148379

>  <reference.journal>  (613) 
J. Med. Chem.

>  <reference.year>  (613) 
2004

$$$$

     RDKit          3D

 22 24  0  0  0  0  0  0  0  0999 V2000
   -5.7078    2.4673   -1.0587 N   0  0  0  0  0  0  0  0  0  0  0  0
   -4.8041    1.5159   -0.5259 C   0  0  0  0  0  0  0  0  0  0  0  0
   -4.9210    0.2431   -0.9456 N   0  0  0  0  0  0  0  0  0  0  0  0
   -4.1158   -0.7486   -0.5073 C   0  0  0  0  0  0  0  0  0  0  0  0
   -3.1374   -0.4306    0.4083 C   0  0  0  0  0  0  0  0  0  0  0  0
   -2.2594   -1.5199    0.8843 C   0  0  0  0  0  0  0  0  0  0  0  0
   -0.9173   -1.4466    0.2473 C   0  0  0  0  0  0  0  0  0  0  0  0
   -0.6132   -2.0877   -0.9360 C   0  0  0  0  0  0  0  0  0  0  0  0
    0.6225   -2.0223   -1.5253 C   0  0  0  0  0  0  0  0  0  0  0  0
    1.5850   -1.2784   -0.8897 C   0  0  0  0  0  0  0  0  0  0  0  0
    1.3301   -0.6217    0.2907 C   0  0  0  0  0  0  0  0  0  0  0  0
    2.2975    0.1359    0.9451 O   0  0  0  0  0  0  0  0  0  0  0  0
    3.5838    0.3073    0.4947 C   0  0  0  0  0  0  0  0  0  0  0  0
    3.9521    1.3291   -0.3375 C   0  0  0  0  0  0  0  0  0  0  0  0
    5.2546    1.4785   -0.7760 C   0  0  0  0  0  0  0  0  0  0  0  0
    6.1932    0.5742   -0.3603 C   0  0  0  0  0  0  0  0  0  0  0  0
    5.8537   -0.4594    0.4733 C   0  0  0  0  0  0  0  0  0  0  0  0
    4.5512   -0.5808    0.8915 C   0  0  0  0  0  0  0  0  0  0  0  0
    0.0849   -0.7144    0.8422 C   0  0  0  0  0  0  0  0  0  0  0  0
   -2.9955    0.8605    0.8540 C   0  0  0  0  0  0  0  0  0  0  0  0
   -1.9878    1.1991    1.7998 N   0  0  0  0  0  0  0  0  0  0  0  0
   -3.8491    1.7994    0.3610 N   0  0  0  0  0  0  0  0  0  0  0  0
  1  2  1  0
  2  3  2  0
  3  4  1  0
  4  5  2  0
  5  6  1  0
  6  7  1  0
  7  8  2  0
  8  9  1  0
  9 10  2  0
 10 11  1  0
 11 12  1  0
 12 13  1  0
 13 14  2  0
 14 15  1  0
 15 16  2  0
 16 17  1  0
 17 18  2  0
 11 19  2  0
  5 20  1  0
 20 21  1  0
 20 22  2  0
 22  2  1  0
 19  7  1  0
 18 13  1  0
M  END
>  <zinc_id>  (614) 
ZINC000013532877

>  <ortholog_name>  (614) 
DRTS_PLAFK

>  <gene_name>  (614) 
DRTS_PLAFK

>  <affinity>  (614) 
5.54

>  <chembldocid>  (614) 
17636

>  <title>  (614) 
None

>  <reference.pubmed_id>  (614) 
14711307

>  <reference.doi>  (614) 
None

>  <reference.chembl_id>  (614) 
CHEMBL1148379

>  <reference.journal>  (614) 
J. Med. Chem.

>  <reference.year>  (614) 
2004

$$$$

     RDKit          3D

 22 24  0  0  0  0  0  0  0  0999 V2000
   -5.7078    2.4673   -1.0587 N   0  0  0  0  0  0  0  0  0  0  0  0
   -4.8041    1.5159   -0.5259 C   0  0  0  0  0  0  0  0  0  0  0  0
   -4.9210    0.2431   -0.9456 N   0  0  0  0  0  0  0  0  0  0  0  0
   -4.1158   -0.7486   -0.5073 C   0  0  0  0  0  0  0  0  0  0  0  0
   -3.1374   -0.4306    0.4083 C   0  0  0  0  0  0  0  0  0  0  0  0
   -2.2594   -1.5199    0.8843 C   0  0  0  0  0  0  0  0  0  0  0  0
   -0.9173   -1.4466    0.2473 C   0  0  0  0  0  0  0  0  0  0  0  0
   -0.6132   -2.0877   -0.9360 C   0  0  0  0  0  0  0  0  0  0  0  0
    0.6225   -2.0223   -1.5253 C   0  0  0  0  0  0  0  0  0  0  0  0
    1.5850   -1.2784   -0.8897 C   0  0  0  0  0  0  0  0  0  0  0  0
    1.3301   -0.6217    0.2907 C   0  0  0  0  0  0  0  0  0  0  0  0
    2.2975    0.1359    0.9451 O   0  0  0  0  0  0  0  0  0  0  0  0
    3.5838    0.3073    0.4947 C   0  0  0  0  0  0  0  0  0  0  0  0
    3.9521    1.3291   -0.3375 C   0  0  0  0  0  0  0  0  0  0  0  0
    5.2546    1.4785   -0.7760 C   0  0  0  0  0  0  0  0  0  0  0  0
    6.1932    0.5742   -0.3603 C   0  0  0  0  0  0  0  0  0  0  0  0
    5.8537   -0.4594    0.4733 C   0  0  0  0  0  0  0  0  0  0  0  0
    4.5512   -0.5808    0.8915 C   0  0  0  0  0  0  0  0  0  0  0  0
    0.0849   -0.7144    0.8422 C   0  0  0  0  0  0  0  0  0  0  0  0
   -2.9955    0.8605    0.8540 C   0  0  0  0  0  0  0  0  0  0  0  0
   -1.9878    1.1991    1.7998 N   0  0  0  0  0  0  0  0  0  0  0  0
   -3.8491    1.7994    0.3610 N   0  0  0  0  0  0  0  0  0  0  0  0
  1  2  1  0
  2  3  2  0
  3  4  1  0
  4  5  2  0
  5  6  1  0
  6  7  1  0
  7  8  2  0
  8  9  1  0
  9 10  2  0
 10 11  1  0
 11 12  1  0
 12 13  1  0
 13 14  2  0
 14 15  1  0
 15 16  2  0
 16 17  1  0
 17 18  2  0
 11 19  2  0
  5 20  1  0
 20 21  1  0
 20 22  2  0
 22  2  1  0
 19  7  1  0
 18 13  1  0
M  END
>  <zinc_id>  (615) 
ZINC000013532877

>  <ortholog_name>  (615) 
DRTS_PLAFK

>  <gene_name>  (615) 
DRTS_PLAFK

>  <affinity>  (615) 
7.52

>  <chembldocid>  (615) 
17636

>  <title>  (615) 
None

>  <reference.pubmed_id>  (615) 
14711307

>  <reference.doi>  (615) 
None

>  <reference.chembl_id>  (615) 
CHEMBL1148379

>  <reference.journal>  (615) 
J. Med. Chem.

>  <reference.year>  (615) 
2004

$$$$

     RDKit          3D

 22 24  0  0  0  0  0  0  0  0999 V2000
   -5.7078    2.4673   -1.0587 N   0  0  0  0  0  0  0  0  0  0  0  0
   -4.8041    1.5159   -0.5259 C   0  0  0  0  0  0  0  0  0  0  0  0
   -4.9210    0.2431   -0.9456 N   0  0  0  0  0  0  0  0  0  0  0  0
   -4.1158   -0.7486   -0.5073 C   0  0  0  0  0  0  0  0  0  0  0  0
   -3.1374   -0.4306    0.4083 C   0  0  0  0  0  0  0  0  0  0  0  0
   -2.2594   -1.5199    0.8843 C   0  0  0  0  0  0  0  0  0  0  0  0
   -0.9173   -1.4466    0.2473 C   0  0  0  0  0  0  0  0  0  0  0  0
   -0.6132   -2.0877   -0.9360 C   0  0  0  0  0  0  0  0  0  0  0  0
    0.6225   -2.0223   -1.5253 C   0  0  0  0  0  0  0  0  0  0  0  0
    1.5850   -1.2784   -0.8897 C   0  0  0  0  0  0  0  0  0  0  0  0
    1.3301   -0.6217    0.2907 C   0  0  0  0  0  0  0  0  0  0  0  0
    2.2975    0.1359    0.9451 O   0  0  0  0  0  0  0  0  0  0  0  0
    3.5838    0.3073    0.4947 C   0  0  0  0  0  0  0  0  0  0  0  0
    3.9521    1.3291   -0.3375 C   0  0  0  0  0  0  0  0  0  0  0  0
    5.2546    1.4785   -0.7760 C   0  0  0  0  0  0  0  0  0  0  0  0
    6.1932    0.5742   -0.3603 C   0  0  0  0  0  0  0  0  0  0  0  0
    5.8537   -0.4594    0.4733 C   0  0  0  0  0  0  0  0  0  0  0  0
    4.5512   -0.5808    0.8915 C   0  0  0  0  0  0  0  0  0  0  0  0
    0.0849   -0.7144    0.8422 C   0  0  0  0  0  0  0  0  0  0  0  0
   -2.9955    0.8605    0.8540 C   0  0  0  0  0  0  0  0  0  0  0  0
   -1.9878    1.1991    1.7998 N   0  0  0  0  0  0  0  0  0  0  0  0
   -3.8491    1.7994    0.3610 N   0  0  0  0  0  0  0  0  0  0  0  0
  1  2  1  0
  2  3  2  0
  3  4  1  0
  4  5  2  0
  5  6  1  0
  6  7  1  0
  7  8  2  0
  8  9  1  0
  9 10  2  0
 10 11  1  0
 11 12  1  0
 12 13  1  0
 13 14  2  0
 14 15  1  0
 15 16  2  0
 16 17  1  0
 17 18  2  0
 11 19  2  0
  5 20  1  0
 20 21  1  0
 20 22  2  0
 22  2  1  0
 19  7  1  0
 18 13  1  0
M  END
>  <zinc_id>  (616) 
ZINC000013532877

>  <ortholog_name>  (616) 
DRTS_PLAFK

>  <gene_name>  (616) 
DRTS_PLAFK

>  <affinity>  (616) 
5.45

>  <chembldocid>  (616) 
17636

>  <title>  (616) 
None

>  <reference.pubmed_id>  (616) 
14711307

>  <reference.doi>  (616) 
None

>  <reference.chembl_id>  (616) 
CHEMBL1148379

>  <reference.journal>  (616) 
J. Med. Chem.

>  <reference.year>  (616) 
2004

$$$$

     RDKit          3D

 22 24  0  0  0  0  0  0  0  0999 V2000
   -5.7078    2.4673   -1.0587 N   0  0  0  0  0  0  0  0  0  0  0  0
   -4.8041    1.5159   -0.5259 C   0  0  0  0  0  0  0  0  0  0  0  0
   -4.9210    0.2431   -0.9456 N   0  0  0  0  0  0  0  0  0  0  0  0
   -4.1158   -0.7486   -0.5073 C   0  0  0  0  0  0  0  0  0  0  0  0
   -3.1374   -0.4306    0.4083 C   0  0  0  0  0  0  0  0  0  0  0  0
   -2.2594   -1.5199    0.8843 C   0  0  0  0  0  0  0  0  0  0  0  0
   -0.9173   -1.4466    0.2473 C   0  0  0  0  0  0  0  0  0  0  0  0
   -0.6132   -2.0877   -0.9360 C   0  0  0  0  0  0  0  0  0  0  0  0
    0.6225   -2.0223   -1.5253 C   0  0  0  0  0  0  0  0  0  0  0  0
    1.5850   -1.2784   -0.8897 C   0  0  0  0  0  0  0  0  0  0  0  0
    1.3301   -0.6217    0.2907 C   0  0  0  0  0  0  0  0  0  0  0  0
    2.2975    0.1359    0.9451 O   0  0  0  0  0  0  0  0  0  0  0  0
    3.5838    0.3073    0.4947 C   0  0  0  0  0  0  0  0  0  0  0  0
    3.9521    1.3291   -0.3375 C   0  0  0  0  0  0  0  0  0  0  0  0
    5.2546    1.4785   -0.7760 C   0  0  0  0  0  0  0  0  0  0  0  0
    6.1932    0.5742   -0.3603 C   0  0  0  0  0  0  0  0  0  0  0  0
    5.8537   -0.4594    0.4733 C   0  0  0  0  0  0  0  0  0  0  0  0
    4.5512   -0.5808    0.8915 C   0  0  0  0  0  0  0  0  0  0  0  0
    0.0849   -0.7144    0.8422 C   0  0  0  0  0  0  0  0  0  0  0  0
   -2.9955    0.8605    0.8540 C   0  0  0  0  0  0  0  0  0  0  0  0
   -1.9878    1.1991    1.7998 N   0  0  0  0  0  0  0  0  0  0  0  0
   -3.8491    1.7994    0.3610 N   0  0  0  0  0  0  0  0  0  0  0  0
  1  2  1  0
  2  3  2  0
  3  4  1  0
  4  5  2  0
  5  6  1  0
  6  7  1  0
  7  8  2  0
  8  9  1  0
  9 10  2  0
 10 11  1  0
 11 12  1  0
 12 13  1  0
 13 14  2  0
 14 15  1  0
 15 16  2  0
 16 17  1  0
 17 18  2  0
 11 19  2  0
  5 20  1  0
 20 21  1  0
 20 22  2  0
 22  2  1  0
 19  7  1  0
 18 13  1  0
M  END
>  <zinc_id>  (617) 
ZINC000013532877

>  <ortholog_name>  (617) 
DRTS_PLAFK

>  <gene_name>  (617) 
DRTS_PLAFK

>  <affinity>  (617) 
5.43

>  <chembldocid>  (617) 
17636

>  <title>  (617) 
None

>  <reference.pubmed_id>  (617) 
14711307

>  <reference.doi>  (617) 
None

>  <reference.chembl_id>  (617) 
CHEMBL1148379

>  <reference.journal>  (617) 
J. Med. Chem.

>  <reference.year>  (617) 
2004

$$$$

     RDKit          3D

 22 24  0  0  0  0  0  0  0  0999 V2000
   -5.7078    2.4673   -1.0587 N   0  0  0  0  0  0  0  0  0  0  0  0
   -4.8041    1.5159   -0.5259 C   0  0  0  0  0  0  0  0  0  0  0  0
   -4.9210    0.2431   -0.9456 N   0  0  0  0  0  0  0  0  0  0  0  0
   -4.1158   -0.7486   -0.5073 C   0  0  0  0  0  0  0  0  0  0  0  0
   -3.1374   -0.4306    0.4083 C   0  0  0  0  0  0  0  0  0  0  0  0
   -2.2594   -1.5199    0.8843 C   0  0  0  0  0  0  0  0  0  0  0  0
   -0.9173   -1.4466    0.2473 C   0  0  0  0  0  0  0  0  0  0  0  0
   -0.6132   -2.0877   -0.9360 C   0  0  0  0  0  0  0  0  0  0  0  0
    0.6225   -2.0223   -1.5253 C   0  0  0  0  0  0  0  0  0  0  0  0
    1.5850   -1.2784   -0.8897 C   0  0  0  0  0  0  0  0  0  0  0  0
    1.3301   -0.6217    0.2907 C   0  0  0  0  0  0  0  0  0  0  0  0
    2.2975    0.1359    0.9451 O   0  0  0  0  0  0  0  0  0  0  0  0
    3.5838    0.3073    0.4947 C   0  0  0  0  0  0  0  0  0  0  0  0
    3.9521    1.3291   -0.3375 C   0  0  0  0  0  0  0  0  0  0  0  0
    5.2546    1.4785   -0.7760 C   0  0  0  0  0  0  0  0  0  0  0  0
    6.1932    0.5742   -0.3603 C   0  0  0  0  0  0  0  0  0  0  0  0
    5.8537   -0.4594    0.4733 C   0  0  0  0  0  0  0  0  0  0  0  0
    4.5512   -0.5808    0.8915 C   0  0  0  0  0  0  0  0  0  0  0  0
    0.0849   -0.7144    0.8422 C   0  0  0  0  0  0  0  0  0  0  0  0
   -2.9955    0.8605    0.8540 C   0  0  0  0  0  0  0  0  0  0  0  0
   -1.9878    1.1991    1.7998 N   0  0  0  0  0  0  0  0  0  0  0  0
   -3.8491    1.7994    0.3610 N   0  0  0  0  0  0  0  0  0  0  0  0
  1  2  1  0
  2  3  2  0
  3  4  1  0
  4  5  2  0
  5  6  1  0
  6  7  1  0
  7  8  2  0
  8  9  1  0
  9 10  2  0
 10 11  1  0
 11 12  1  0
 12 13  1  0
 13 14  2  0
 14 15  1  0
 15 16  2  0
 16 17  1  0
 17 18  2  0
 11 19  2  0
  5 20  1  0
 20 21  1  0
 20 22  2  0
 22  2  1  0
 19  7  1  0
 18 13  1  0
M  END
>  <zinc_id>  (618) 
ZINC000013532877

>  <ortholog_name>  (618) 
DRTS_PLAFK

>  <gene_name>  (618) 
DRTS_PLAFK

>  <affinity>  (618) 
8.28

>  <chembldocid>  (618) 
17636

>  <title>  (618) 
None

>  <reference.pubmed_id>  (618) 
14711307

>  <reference.doi>  (618) 
None

>  <reference.chembl_id>  (618) 
CHEMBL1148379

>  <reference.journal>  (618) 
J. Med. Chem.

>  <reference.year>  (618) 
2004

$$$$

     RDKit          3D

 22 24  0  0  0  0  0  0  0  0999 V2000
   -5.7078    2.4673   -1.0587 N   0  0  0  0  0  0  0  0  0  0  0  0
   -4.8041    1.5159   -0.5259 C   0  0  0  0  0  0  0  0  0  0  0  0
   -4.9210    0.2431   -0.9456 N   0  0  0  0  0  0  0  0  0  0  0  0
   -4.1158   -0.7486   -0.5073 C   0  0  0  0  0  0  0  0  0  0  0  0
   -3.1374   -0.4306    0.4083 C   0  0  0  0  0  0  0  0  0  0  0  0
   -2.2594   -1.5199    0.8843 C   0  0  0  0  0  0  0  0  0  0  0  0
   -0.9173   -1.4466    0.2473 C   0  0  0  0  0  0  0  0  0  0  0  0
   -0.6132   -2.0877   -0.9360 C   0  0  0  0  0  0  0  0  0  0  0  0
    0.6225   -2.0223   -1.5253 C   0  0  0  0  0  0  0  0  0  0  0  0
    1.5850   -1.2784   -0.8897 C   0  0  0  0  0  0  0  0  0  0  0  0
    1.3301   -0.6217    0.2907 C   0  0  0  0  0  0  0  0  0  0  0  0
    2.2975    0.1359    0.9451 O   0  0  0  0  0  0  0  0  0  0  0  0
    3.5838    0.3073    0.4947 C   0  0  0  0  0  0  0  0  0  0  0  0
    3.9521    1.3291   -0.3375 C   0  0  0  0  0  0  0  0  0  0  0  0
    5.2546    1.4785   -0.7760 C   0  0  0  0  0  0  0  0  0  0  0  0
    6.1932    0.5742   -0.3603 C   0  0  0  0  0  0  0  0  0  0  0  0
    5.8537   -0.4594    0.4733 C   0  0  0  0  0  0  0  0  0  0  0  0
    4.5512   -0.5808    0.8915 C   0  0  0  0  0  0  0  0  0  0  0  0
    0.0849   -0.7144    0.8422 C   0  0  0  0  0  0  0  0  0  0  0  0
   -2.9955    0.8605    0.8540 C   0  0  0  0  0  0  0  0  0  0  0  0
   -1.9878    1.1991    1.7998 N   0  0  0  0  0  0  0  0  0  0  0  0
   -3.8491    1.7994    0.3610 N   0  0  0  0  0  0  0  0  0  0  0  0
  1  2  1  0
  2  3  2  0
  3  4  1  0
  4  5  2  0
  5  6  1  0
  6  7  1  0
  7  8  2  0
  8  9  1  0
  9 10  2  0
 10 11  1  0
 11 12  1  0
 12 13  1  0
 13 14  2  0
 14 15  1  0
 15 16  2  0
 16 17  1  0
 17 18  2  0
 11 19  2  0
  5 20  1  0
 20 21  1  0
 20 22  2  0
 22  2  1  0
 19  7  1  0
 18 13  1  0
M  END
>  <zinc_id>  (619) 
ZINC000013532877

>  <ortholog_name>  (619) 
DRTS_PLAFK

>  <gene_name>  (619) 
DRTS_PLAFK

>  <affinity>  (619) 
6.17

>  <chembldocid>  (619) 
17636

>  <title>  (619) 
None

>  <reference.pubmed_id>  (619) 
14711307

>  <reference.doi>  (619) 
None

>  <reference.chembl_id>  (619) 
CHEMBL1148379

>  <reference.journal>  (619) 
J. Med. Chem.

>  <reference.year>  (619) 
2004

$$$$

     RDKit          3D

 22 24  0  0  0  0  0  0  0  0999 V2000
   -5.7078    2.4673   -1.0587 N   0  0  0  0  0  0  0  0  0  0  0  0
   -4.8041    1.5159   -0.5259 C   0  0  0  0  0  0  0  0  0  0  0  0
   -4.9210    0.2431   -0.9456 N   0  0  0  0  0  0  0  0  0  0  0  0
   -4.1158   -0.7486   -0.5073 C   0  0  0  0  0  0  0  0  0  0  0  0
   -3.1374   -0.4306    0.4083 C   0  0  0  0  0  0  0  0  0  0  0  0
   -2.2594   -1.5199    0.8843 C   0  0  0  0  0  0  0  0  0  0  0  0
   -0.9173   -1.4466    0.2473 C   0  0  0  0  0  0  0  0  0  0  0  0
   -0.6132   -2.0877   -0.9360 C   0  0  0  0  0  0  0  0  0  0  0  0
    0.6225   -2.0223   -1.5253 C   0  0  0  0  0  0  0  0  0  0  0  0
    1.5850   -1.2784   -0.8897 C   0  0  0  0  0  0  0  0  0  0  0  0
    1.3301   -0.6217    0.2907 C   0  0  0  0  0  0  0  0  0  0  0  0
    2.2975    0.1359    0.9451 O   0  0  0  0  0  0  0  0  0  0  0  0
    3.5838    0.3073    0.4947 C   0  0  0  0  0  0  0  0  0  0  0  0
    3.9521    1.3291   -0.3375 C   0  0  0  0  0  0  0  0  0  0  0  0
    5.2546    1.4785   -0.7760 C   0  0  0  0  0  0  0  0  0  0  0  0
    6.1932    0.5742   -0.3603 C   0  0  0  0  0  0  0  0  0  0  0  0
    5.8537   -0.4594    0.4733 C   0  0  0  0  0  0  0  0  0  0  0  0
    4.5512   -0.5808    0.8915 C   0  0  0  0  0  0  0  0  0  0  0  0
    0.0849   -0.7144    0.8422 C   0  0  0  0  0  0  0  0  0  0  0  0
   -2.9955    0.8605    0.8540 C   0  0  0  0  0  0  0  0  0  0  0  0
   -1.9878    1.1991    1.7998 N   0  0  0  0  0  0  0  0  0  0  0  0
   -3.8491    1.7994    0.3610 N   0  0  0  0  0  0  0  0  0  0  0  0
  1  2  1  0
  2  3  2  0
  3  4  1  0
  4  5  2  0
  5  6  1  0
  6  7  1  0
  7  8  2  0
  8  9  1  0
  9 10  2  0
 10 11  1  0
 11 12  1  0
 12 13  1  0
 13 14  2  0
 14 15  1  0
 15 16  2  0
 16 17  1  0
 17 18  2  0
 11 19  2  0
  5 20  1  0
 20 21  1  0
 20 22  2  0
 22  2  1  0
 19  7  1  0
 18 13  1  0
M  END
>  <zinc_id>  (620) 
ZINC000013532877

>  <ortholog_name>  (620) 
DRTS_PLAFK

>  <gene_name>  (620) 
DRTS_PLAFK

>  <affinity>  (620) 
7.09

>  <chembldocid>  (620) 
17636

>  <title>  (620) 
None

>  <reference.pubmed_id>  (620) 
14711307

>  <reference.doi>  (620) 
None

>  <reference.chembl_id>  (620) 
CHEMBL1148379

>  <reference.journal>  (620) 
J. Med. Chem.

>  <reference.year>  (620) 
2004

$$$$

     RDKit          3D

 25 27  0  0  0  0  0  0  0  0999 V2000
    1.3875   -1.4414    4.4769 C   0  0  0  0  0  0  0  0  0  0  0  0
    1.6856   -1.0680    3.1398 O   0  0  0  0  0  0  0  0  0  0  0  0
    0.7468   -0.2823    2.4751 C   0  0  0  0  0  0  0  0  0  0  0  0
   -0.4375    0.1275    3.0791 C   0  0  0  0  0  0  0  0  0  0  0  0
   -1.3663    0.9058    2.4199 C   0  0  0  0  0  0  0  0  0  0  0  0
   -1.1437    1.3095    1.1144 C   0  0  0  0  0  0  0  0  0  0  0  0
   -2.1199    2.1490    0.3637 C   0  0  0  0  0  0  0  0  0  0  0  0
   -3.0927    1.3464   -0.3837 C   0  0  0  0  0  0  0  0  0  0  0  0
   -2.9815    1.2065   -1.7439 C   0  0  0  0  0  0  0  0  0  0  0  0
   -3.8842    0.4631   -2.4370 N   0  0  0  0  0  0  0  0  0  0  0  0
   -4.9115   -0.1594   -1.8308 C   0  0  0  0  0  0  0  0  0  0  0  0
   -5.8687   -0.9443   -2.5419 N   0  0  0  0  0  0  0  0  0  0  0  0
   -5.0142   -0.0166   -0.4910 N   0  0  0  0  0  0  0  0  0  0  0  0
   -4.1478    0.7072    0.2395 C   0  0  0  0  0  0  0  0  0  0  0  0
   -4.2481    0.8607    1.6488 N   0  0  0  0  0  0  0  0  0  0  0  0
    0.0357    0.8973    0.5232 C   0  0  0  0  0  0  0  0  0  0  0  0
    0.9663    0.1197    1.1783 C   0  0  0  0  0  0  0  0  0  0  0  0
    2.1229   -0.2451    0.5009 O   0  0  0  0  0  0  0  0  0  0  0  0
    2.4151    0.1218   -0.8094 C   0  0  0  0  0  0  0  0  0  0  0  0
    3.7346   -0.4570   -1.1746 C   0  0  0  0  0  0  0  0  0  0  0  0
    4.9010    0.2715   -1.0429 C   0  0  0  0  0  0  0  0  0  0  0  0
    6.1344   -0.2569   -1.3767 C   0  0  0  0  0  0  0  0  0  0  0  0
    6.1923   -1.5575   -1.8567 C   0  0  0  0  0  0  0  0  0  0  0  0
    5.0598   -2.3174   -2.0036 C   0  0  0  0  0  0  0  0  0  0  0  0
    3.8340   -1.7402   -1.6531 C   0  0  0  0  0  0  0  0  0  0  0  0
  1  2  1  0
  2  3  1  0
  3  4  2  0
  4  5  1  0
  5  6  2  0
  6  7  1  0
  7  8  1  0
  8  9  2  0
  9 10  1  0
 10 11  2  0
 11 12  1  0
 11 13  1  0
 13 14  2  0
 14 15  1  0
  6 16  1  0
 16 17  2  0
 17 18  1  0
 18 19  1  0
 19 20  1  0
 20 21  2  0
 21 22  1  0
 22 23  2  0
 23 24  1  0
 24 25  2  0
 17  3  1  0
 25 20  1  0
 14  8  1  0
M  END
>  <zinc_id>  (621) 
ZINC000013532881

>  <ortholog_name>  (621) 
DRTS_PLAFK

>  <gene_name>  (621) 
DRTS_PLAFK

>  <affinity>  (621) 
5.95

>  <chembldocid>  (621) 
17636

>  <title>  (621) 
None

>  <reference.pubmed_id>  (621) 
14711307

>  <reference.doi>  (621) 
None

>  <reference.chembl_id>  (621) 
CHEMBL1148379

>  <reference.journal>  (621) 
J. Med. Chem.

>  <reference.year>  (621) 
2004

$$$$

     RDKit          3D

 25 27  0  0  0  0  0  0  0  0999 V2000
    1.3875   -1.4414    4.4769 C   0  0  0  0  0  0  0  0  0  0  0  0
    1.6856   -1.0680    3.1398 O   0  0  0  0  0  0  0  0  0  0  0  0
    0.7468   -0.2823    2.4751 C   0  0  0  0  0  0  0  0  0  0  0  0
   -0.4375    0.1275    3.0791 C   0  0  0  0  0  0  0  0  0  0  0  0
   -1.3663    0.9058    2.4199 C   0  0  0  0  0  0  0  0  0  0  0  0
   -1.1437    1.3095    1.1144 C   0  0  0  0  0  0  0  0  0  0  0  0
   -2.1199    2.1490    0.3637 C   0  0  0  0  0  0  0  0  0  0  0  0
   -3.0927    1.3464   -0.3837 C   0  0  0  0  0  0  0  0  0  0  0  0
   -2.9815    1.2065   -1.7439 C   0  0  0  0  0  0  0  0  0  0  0  0
   -3.8842    0.4631   -2.4370 N   0  0  0  0  0  0  0  0  0  0  0  0
   -4.9115   -0.1594   -1.8308 C   0  0  0  0  0  0  0  0  0  0  0  0
   -5.8687   -0.9443   -2.5419 N   0  0  0  0  0  0  0  0  0  0  0  0
   -5.0142   -0.0166   -0.4910 N   0  0  0  0  0  0  0  0  0  0  0  0
   -4.1478    0.7072    0.2395 C   0  0  0  0  0  0  0  0  0  0  0  0
   -4.2481    0.8607    1.6488 N   0  0  0  0  0  0  0  0  0  0  0  0
    0.0357    0.8973    0.5232 C   0  0  0  0  0  0  0  0  0  0  0  0
    0.9663    0.1197    1.1783 C   0  0  0  0  0  0  0  0  0  0  0  0
    2.1229   -0.2451    0.5009 O   0  0  0  0  0  0  0  0  0  0  0  0
    2.4151    0.1218   -0.8094 C   0  0  0  0  0  0  0  0  0  0  0  0
    3.7346   -0.4570   -1.1746 C   0  0  0  0  0  0  0  0  0  0  0  0
    4.9010    0.2715   -1.0429 C   0  0  0  0  0  0  0  0  0  0  0  0
    6.1344   -0.2569   -1.3767 C   0  0  0  0  0  0  0  0  0  0  0  0
    6.1923   -1.5575   -1.8567 C   0  0  0  0  0  0  0  0  0  0  0  0
    5.0598   -2.3174   -2.0036 C   0  0  0  0  0  0  0  0  0  0  0  0
    3.8340   -1.7402   -1.6531 C   0  0  0  0  0  0  0  0  0  0  0  0
  1  2  1  0
  2  3  1  0
  3  4  2  0
  4  5  1  0
  5  6  2  0
  6  7  1  0
  7  8  1  0
  8  9  2  0
  9 10  1  0
 10 11  2  0
 11 12  1  0
 11 13  1  0
 13 14  2  0
 14 15  1  0
  6 16  1  0
 16 17  2  0
 17 18  1  0
 18 19  1  0
 19 20  1  0
 20 21  2  0
 21 22  1  0
 22 23  2  0
 23 24  1  0
 24 25  2  0
 17  3  1  0
 25 20  1  0
 14  8  1  0
M  END
>  <zinc_id>  (622) 
ZINC000013532881

>  <ortholog_name>  (622) 
DRTS_PLAFK

>  <gene_name>  (622) 
DRTS_PLAFK

>  <affinity>  (622) 
6.84

>  <chembldocid>  (622) 
17636

>  <title>  (622) 
None

>  <reference.pubmed_id>  (622) 
14711307

>  <reference.doi>  (622) 
None

>  <reference.chembl_id>  (622) 
CHEMBL1148379

>  <reference.journal>  (622) 
J. Med. Chem.

>  <reference.year>  (622) 
2004

$$$$

     RDKit          3D

 25 27  0  0  0  0  0  0  0  0999 V2000
    1.3875   -1.4414    4.4769 C   0  0  0  0  0  0  0  0  0  0  0  0
    1.6856   -1.0680    3.1398 O   0  0  0  0  0  0  0  0  0  0  0  0
    0.7468   -0.2823    2.4751 C   0  0  0  0  0  0  0  0  0  0  0  0
   -0.4375    0.1275    3.0791 C   0  0  0  0  0  0  0  0  0  0  0  0
   -1.3663    0.9058    2.4199 C   0  0  0  0  0  0  0  0  0  0  0  0
   -1.1437    1.3095    1.1144 C   0  0  0  0  0  0  0  0  0  0  0  0
   -2.1199    2.1490    0.3637 C   0  0  0  0  0  0  0  0  0  0  0  0
   -3.0927    1.3464   -0.3837 C   0  0  0  0  0  0  0  0  0  0  0  0
   -2.9815    1.2065   -1.7439 C   0  0  0  0  0  0  0  0  0  0  0  0
   -3.8842    0.4631   -2.4370 N   0  0  0  0  0  0  0  0  0  0  0  0
   -4.9115   -0.1594   -1.8308 C   0  0  0  0  0  0  0  0  0  0  0  0
   -5.8687   -0.9443   -2.5419 N   0  0  0  0  0  0  0  0  0  0  0  0
   -5.0142   -0.0166   -0.4910 N   0  0  0  0  0  0  0  0  0  0  0  0
   -4.1478    0.7072    0.2395 C   0  0  0  0  0  0  0  0  0  0  0  0
   -4.2481    0.8607    1.6488 N   0  0  0  0  0  0  0  0  0  0  0  0
    0.0357    0.8973    0.5232 C   0  0  0  0  0  0  0  0  0  0  0  0
    0.9663    0.1197    1.1783 C   0  0  0  0  0  0  0  0  0  0  0  0
    2.1229   -0.2451    0.5009 O   0  0  0  0  0  0  0  0  0  0  0  0
    2.4151    0.1218   -0.8094 C   0  0  0  0  0  0  0  0  0  0  0  0
    3.7346   -0.4570   -1.1746 C   0  0  0  0  0  0  0  0  0  0  0  0
    4.9010    0.2715   -1.0429 C   0  0  0  0  0  0  0  0  0  0  0  0
    6.1344   -0.2569   -1.3767 C   0  0  0  0  0  0  0  0  0  0  0  0
    6.1923   -1.5575   -1.8567 C   0  0  0  0  0  0  0  0  0  0  0  0
    5.0598   -2.3174   -2.0036 C   0  0  0  0  0  0  0  0  0  0  0  0
    3.8340   -1.7402   -1.6531 C   0  0  0  0  0  0  0  0  0  0  0  0
  1  2  1  0
  2  3  1  0
  3  4  2  0
  4  5  1  0
  5  6  2  0
  6  7  1  0
  7  8  1  0
  8  9  2  0
  9 10  1  0
 10 11  2  0
 11 12  1  0
 11 13  1  0
 13 14  2  0
 14 15  1  0
  6 16  1  0
 16 17  2  0
 17 18  1  0
 18 19  1  0
 19 20  1  0
 20 21  2  0
 21 22  1  0
 22 23  2  0
 23 24  1  0
 24 25  2  0
 17  3  1  0
 25 20  1  0
 14  8  1  0
M  END
>  <zinc_id>  (623) 
ZINC000013532881

>  <ortholog_name>  (623) 
DRTS_PLAFK

>  <gene_name>  (623) 
DRTS_PLAFK

>  <affinity>  (623) 
6.60

>  <chembldocid>  (623) 
17636

>  <title>  (623) 
None

>  <reference.pubmed_id>  (623) 
14711307

>  <reference.doi>  (623) 
None

>  <reference.chembl_id>  (623) 
CHEMBL1148379

>  <reference.journal>  (623) 
J. Med. Chem.

>  <reference.year>  (623) 
2004

$$$$

     RDKit          3D

 25 27  0  0  0  0  0  0  0  0999 V2000
    1.3875   -1.4414    4.4769 C   0  0  0  0  0  0  0  0  0  0  0  0
    1.6856   -1.0680    3.1398 O   0  0  0  0  0  0  0  0  0  0  0  0
    0.7468   -0.2823    2.4751 C   0  0  0  0  0  0  0  0  0  0  0  0
   -0.4375    0.1275    3.0791 C   0  0  0  0  0  0  0  0  0  0  0  0
   -1.3663    0.9058    2.4199 C   0  0  0  0  0  0  0  0  0  0  0  0
   -1.1437    1.3095    1.1144 C   0  0  0  0  0  0  0  0  0  0  0  0
   -2.1199    2.1490    0.3637 C   0  0  0  0  0  0  0  0  0  0  0  0
   -3.0927    1.3464   -0.3837 C   0  0  0  0  0  0  0  0  0  0  0  0
   -2.9815    1.2065   -1.7439 C   0  0  0  0  0  0  0  0  0  0  0  0
   -3.8842    0.4631   -2.4370 N   0  0  0  0  0  0  0  0  0  0  0  0
   -4.9115   -0.1594   -1.8308 C   0  0  0  0  0  0  0  0  0  0  0  0
   -5.8687   -0.9443   -2.5419 N   0  0  0  0  0  0  0  0  0  0  0  0
   -5.0142   -0.0166   -0.4910 N   0  0  0  0  0  0  0  0  0  0  0  0
   -4.1478    0.7072    0.2395 C   0  0  0  0  0  0  0  0  0  0  0  0
   -4.2481    0.8607    1.6488 N   0  0  0  0  0  0  0  0  0  0  0  0
    0.0357    0.8973    0.5232 C   0  0  0  0  0  0  0  0  0  0  0  0
    0.9663    0.1197    1.1783 C   0  0  0  0  0  0  0  0  0  0  0  0
    2.1229   -0.2451    0.5009 O   0  0  0  0  0  0  0  0  0  0  0  0
    2.4151    0.1218   -0.8094 C   0  0  0  0  0  0  0  0  0  0  0  0
    3.7346   -0.4570   -1.1746 C   0  0  0  0  0  0  0  0  0  0  0  0
    4.9010    0.2715   -1.0429 C   0  0  0  0  0  0  0  0  0  0  0  0
    6.1344   -0.2569   -1.3767 C   0  0  0  0  0  0  0  0  0  0  0  0
    6.1923   -1.5575   -1.8567 C   0  0  0  0  0  0  0  0  0  0  0  0
    5.0598   -2.3174   -2.0036 C   0  0  0  0  0  0  0  0  0  0  0  0
    3.8340   -1.7402   -1.6531 C   0  0  0  0  0  0  0  0  0  0  0  0
  1  2  1  0
  2  3  1  0
  3  4  2  0
  4  5  1  0
  5  6  2  0
  6  7  1  0
  7  8  1  0
  8  9  2  0
  9 10  1  0
 10 11  2  0
 11 12  1  0
 11 13  1  0
 13 14  2  0
 14 15  1  0
  6 16  1  0
 16 17  2  0
 17 18  1  0
 18 19  1  0
 19 20  1  0
 20 21  2  0
 21 22  1  0
 22 23  2  0
 23 24  1  0
 24 25  2  0
 17  3  1  0
 25 20  1  0
 14  8  1  0
M  END
>  <zinc_id>  (624) 
ZINC000013532881

>  <ortholog_name>  (624) 
DRTS_PLAFK

>  <gene_name>  (624) 
DRTS_PLAFK

>  <affinity>  (624) 
5.58

>  <chembldocid>  (624) 
17636

>  <title>  (624) 
None

>  <reference.pubmed_id>  (624) 
14711307

>  <reference.doi>  (624) 
None

>  <reference.chembl_id>  (624) 
CHEMBL1148379

>  <reference.journal>  (624) 
J. Med. Chem.

>  <reference.year>  (624) 
2004

$$$$

     RDKit          3D

 25 27  0  0  0  0  0  0  0  0999 V2000
    1.3875   -1.4414    4.4769 C   0  0  0  0  0  0  0  0  0  0  0  0
    1.6856   -1.0680    3.1398 O   0  0  0  0  0  0  0  0  0  0  0  0
    0.7468   -0.2823    2.4751 C   0  0  0  0  0  0  0  0  0  0  0  0
   -0.4375    0.1275    3.0791 C   0  0  0  0  0  0  0  0  0  0  0  0
   -1.3663    0.9058    2.4199 C   0  0  0  0  0  0  0  0  0  0  0  0
   -1.1437    1.3095    1.1144 C   0  0  0  0  0  0  0  0  0  0  0  0
   -2.1199    2.1490    0.3637 C   0  0  0  0  0  0  0  0  0  0  0  0
   -3.0927    1.3464   -0.3837 C   0  0  0  0  0  0  0  0  0  0  0  0
   -2.9815    1.2065   -1.7439 C   0  0  0  0  0  0  0  0  0  0  0  0
   -3.8842    0.4631   -2.4370 N   0  0  0  0  0  0  0  0  0  0  0  0
   -4.9115   -0.1594   -1.8308 C   0  0  0  0  0  0  0  0  0  0  0  0
   -5.8687   -0.9443   -2.5419 N   0  0  0  0  0  0  0  0  0  0  0  0
   -5.0142   -0.0166   -0.4910 N   0  0  0  0  0  0  0  0  0  0  0  0
   -4.1478    0.7072    0.2395 C   0  0  0  0  0  0  0  0  0  0  0  0
   -4.2481    0.8607    1.6488 N   0  0  0  0  0  0  0  0  0  0  0  0
    0.0357    0.8973    0.5232 C   0  0  0  0  0  0  0  0  0  0  0  0
    0.9663    0.1197    1.1783 C   0  0  0  0  0  0  0  0  0  0  0  0
    2.1229   -0.2451    0.5009 O   0  0  0  0  0  0  0  0  0  0  0  0
    2.4151    0.1218   -0.8094 C   0  0  0  0  0  0  0  0  0  0  0  0
    3.7346   -0.4570   -1.1746 C   0  0  0  0  0  0  0  0  0  0  0  0
    4.9010    0.2715   -1.0429 C   0  0  0  0  0  0  0  0  0  0  0  0
    6.1344   -0.2569   -1.3767 C   0  0  0  0  0  0  0  0  0  0  0  0
    6.1923   -1.5575   -1.8567 C   0  0  0  0  0  0  0  0  0  0  0  0
    5.0598   -2.3174   -2.0036 C   0  0  0  0  0  0  0  0  0  0  0  0
    3.8340   -1.7402   -1.6531 C   0  0  0  0  0  0  0  0  0  0  0  0
  1  2  1  0
  2  3  1  0
  3  4  2  0
  4  5  1  0
  5  6  2  0
  6  7  1  0
  7  8  1  0
  8  9  2  0
  9 10  1  0
 10 11  2  0
 11 12  1  0
 11 13  1  0
 13 14  2  0
 14 15  1  0
  6 16  1  0
 16 17  2  0
 17 18  1  0
 18 19  1  0
 19 20  1  0
 20 21  2  0
 21 22  1  0
 22 23  2  0
 23 24  1  0
 24 25  2  0
 17  3  1  0
 25 20  1  0
 14  8  1  0
M  END
>  <zinc_id>  (625) 
ZINC000013532881

>  <ortholog_name>  (625) 
DRTS_PLAFK

>  <gene_name>  (625) 
DRTS_PLAFK

>  <affinity>  (625) 
7.52

>  <chembldocid>  (625) 
17636

>  <title>  (625) 
None

>  <reference.pubmed_id>  (625) 
14711307

>  <reference.doi>  (625) 
None

>  <reference.chembl_id>  (625) 
CHEMBL1148379

>  <reference.journal>  (625) 
J. Med. Chem.

>  <reference.year>  (625) 
2004

$$$$

     RDKit          3D

 25 27  0  0  0  0  0  0  0  0999 V2000
    1.3875   -1.4414    4.4769 C   0  0  0  0  0  0  0  0  0  0  0  0
    1.6856   -1.0680    3.1398 O   0  0  0  0  0  0  0  0  0  0  0  0
    0.7468   -0.2823    2.4751 C   0  0  0  0  0  0  0  0  0  0  0  0
   -0.4375    0.1275    3.0791 C   0  0  0  0  0  0  0  0  0  0  0  0
   -1.3663    0.9058    2.4199 C   0  0  0  0  0  0  0  0  0  0  0  0
   -1.1437    1.3095    1.1144 C   0  0  0  0  0  0  0  0  0  0  0  0
   -2.1199    2.1490    0.3637 C   0  0  0  0  0  0  0  0  0  0  0  0
   -3.0927    1.3464   -0.3837 C   0  0  0  0  0  0  0  0  0  0  0  0
   -2.9815    1.2065   -1.7439 C   0  0  0  0  0  0  0  0  0  0  0  0
   -3.8842    0.4631   -2.4370 N   0  0  0  0  0  0  0  0  0  0  0  0
   -4.9115   -0.1594   -1.8308 C   0  0  0  0  0  0  0  0  0  0  0  0
   -5.8687   -0.9443   -2.5419 N   0  0  0  0  0  0  0  0  0  0  0  0
   -5.0142   -0.0166   -0.4910 N   0  0  0  0  0  0  0  0  0  0  0  0
   -4.1478    0.7072    0.2395 C   0  0  0  0  0  0  0  0  0  0  0  0
   -4.2481    0.8607    1.6488 N   0  0  0  0  0  0  0  0  0  0  0  0
    0.0357    0.8973    0.5232 C   0  0  0  0  0  0  0  0  0  0  0  0
    0.9663    0.1197    1.1783 C   0  0  0  0  0  0  0  0  0  0  0  0
    2.1229   -0.2451    0.5009 O   0  0  0  0  0  0  0  0  0  0  0  0
    2.4151    0.1218   -0.8094 C   0  0  0  0  0  0  0  0  0  0  0  0
    3.7346   -0.4570   -1.1746 C   0  0  0  0  0  0  0  0  0  0  0  0
    4.9010    0.2715   -1.0429 C   0  0  0  0  0  0  0  0  0  0  0  0
    6.1344   -0.2569   -1.3767 C   0  0  0  0  0  0  0  0  0  0  0  0
    6.1923   -1.5575   -1.8567 C   0  0  0  0  0  0  0  0  0  0  0  0
    5.0598   -2.3174   -2.0036 C   0  0  0  0  0  0  0  0  0  0  0  0
    3.8340   -1.7402   -1.6531 C   0  0  0  0  0  0  0  0  0  0  0  0
  1  2  1  0
  2  3  1  0
  3  4  2  0
  4  5  1  0
  5  6  2  0
  6  7  1  0
  7  8  1  0
  8  9  2  0
  9 10  1  0
 10 11  2  0
 11 12  1  0
 11 13  1  0
 13 14  2  0
 14 15  1  0
  6 16  1  0
 16 17  2  0
 17 18  1  0
 18 19  1  0
 19 20  1  0
 20 21  2  0
 21 22  1  0
 22 23  2  0
 23 24  1  0
 24 25  2  0
 17  3  1  0
 25 20  1  0
 14  8  1  0
M  END
>  <zinc_id>  (626) 
ZINC000013532881

>  <ortholog_name>  (626) 
DRTS_PLAFK

>  <gene_name>  (626) 
DRTS_PLAFK

>  <affinity>  (626) 
5.42

>  <chembldocid>  (626) 
17636

>  <title>  (626) 
None

>  <reference.pubmed_id>  (626) 
14711307

>  <reference.doi>  (626) 
None

>  <reference.chembl_id>  (626) 
CHEMBL1148379

>  <reference.journal>  (626) 
J. Med. Chem.

>  <reference.year>  (626) 
2004

$$$$

     RDKit          3D

 25 27  0  0  0  0  0  0  0  0999 V2000
    1.3875   -1.4414    4.4769 C   0  0  0  0  0  0  0  0  0  0  0  0
    1.6856   -1.0680    3.1398 O   0  0  0  0  0  0  0  0  0  0  0  0
    0.7468   -0.2823    2.4751 C   0  0  0  0  0  0  0  0  0  0  0  0
   -0.4375    0.1275    3.0791 C   0  0  0  0  0  0  0  0  0  0  0  0
   -1.3663    0.9058    2.4199 C   0  0  0  0  0  0  0  0  0  0  0  0
   -1.1437    1.3095    1.1144 C   0  0  0  0  0  0  0  0  0  0  0  0
   -2.1199    2.1490    0.3637 C   0  0  0  0  0  0  0  0  0  0  0  0
   -3.0927    1.3464   -0.3837 C   0  0  0  0  0  0  0  0  0  0  0  0
   -2.9815    1.2065   -1.7439 C   0  0  0  0  0  0  0  0  0  0  0  0
   -3.8842    0.4631   -2.4370 N   0  0  0  0  0  0  0  0  0  0  0  0
   -4.9115   -0.1594   -1.8308 C   0  0  0  0  0  0  0  0  0  0  0  0
   -5.8687   -0.9443   -2.5419 N   0  0  0  0  0  0  0  0  0  0  0  0
   -5.0142   -0.0166   -0.4910 N   0  0  0  0  0  0  0  0  0  0  0  0
   -4.1478    0.7072    0.2395 C   0  0  0  0  0  0  0  0  0  0  0  0
   -4.2481    0.8607    1.6488 N   0  0  0  0  0  0  0  0  0  0  0  0
    0.0357    0.8973    0.5232 C   0  0  0  0  0  0  0  0  0  0  0  0
    0.9663    0.1197    1.1783 C   0  0  0  0  0  0  0  0  0  0  0  0
    2.1229   -0.2451    0.5009 O   0  0  0  0  0  0  0  0  0  0  0  0
    2.4151    0.1218   -0.8094 C   0  0  0  0  0  0  0  0  0  0  0  0
    3.7346   -0.4570   -1.1746 C   0  0  0  0  0  0  0  0  0  0  0  0
    4.9010    0.2715   -1.0429 C   0  0  0  0  0  0  0  0  0  0  0  0
    6.1344   -0.2569   -1.3767 C   0  0  0  0  0  0  0  0  0  0  0  0
    6.1923   -1.5575   -1.8567 C   0  0  0  0  0  0  0  0  0  0  0  0
    5.0598   -2.3174   -2.0036 C   0  0  0  0  0  0  0  0  0  0  0  0
    3.8340   -1.7402   -1.6531 C   0  0  0  0  0  0  0  0  0  0  0  0
  1  2  1  0
  2  3  1  0
  3  4  2  0
  4  5  1  0
  5  6  2  0
  6  7  1  0
  7  8  1  0
  8  9  2  0
  9 10  1  0
 10 11  2  0
 11 12  1  0
 11 13  1  0
 13 14  2  0
 14 15  1  0
  6 16  1  0
 16 17  2  0
 17 18  1  0
 18 19  1  0
 19 20  1  0
 20 21  2  0
 21 22  1  0
 22 23  2  0
 23 24  1  0
 24 25  2  0
 17  3  1  0
 25 20  1  0
 14  8  1  0
M  END
>  <zinc_id>  (627) 
ZINC000013532881

>  <ortholog_name>  (627) 
DRTS_PLAFK

>  <gene_name>  (627) 
DRTS_PLAFK

>  <affinity>  (627) 
7.30

>  <chembldocid>  (627) 
17636

>  <title>  (627) 
None

>  <reference.pubmed_id>  (627) 
14711307

>  <reference.doi>  (627) 
None

>  <reference.chembl_id>  (627) 
CHEMBL1148379

>  <reference.journal>  (627) 
J. Med. Chem.

>  <reference.year>  (627) 
2004

$$$$

     RDKit          3D

 25 27  0  0  0  0  0  0  0  0999 V2000
    1.3875   -1.4414    4.4769 C   0  0  0  0  0  0  0  0  0  0  0  0
    1.6856   -1.0680    3.1398 O   0  0  0  0  0  0  0  0  0  0  0  0
    0.7468   -0.2823    2.4751 C   0  0  0  0  0  0  0  0  0  0  0  0
   -0.4375    0.1275    3.0791 C   0  0  0  0  0  0  0  0  0  0  0  0
   -1.3663    0.9058    2.4199 C   0  0  0  0  0  0  0  0  0  0  0  0
   -1.1437    1.3095    1.1144 C   0  0  0  0  0  0  0  0  0  0  0  0
   -2.1199    2.1490    0.3637 C   0  0  0  0  0  0  0  0  0  0  0  0
   -3.0927    1.3464   -0.3837 C   0  0  0  0  0  0  0  0  0  0  0  0
   -2.9815    1.2065   -1.7439 C   0  0  0  0  0  0  0  0  0  0  0  0
   -3.8842    0.4631   -2.4370 N   0  0  0  0  0  0  0  0  0  0  0  0
   -4.9115   -0.1594   -1.8308 C   0  0  0  0  0  0  0  0  0  0  0  0
   -5.8687   -0.9443   -2.5419 N   0  0  0  0  0  0  0  0  0  0  0  0
   -5.0142   -0.0166   -0.4910 N   0  0  0  0  0  0  0  0  0  0  0  0
   -4.1478    0.7072    0.2395 C   0  0  0  0  0  0  0  0  0  0  0  0
   -4.2481    0.8607    1.6488 N   0  0  0  0  0  0  0  0  0  0  0  0
    0.0357    0.8973    0.5232 C   0  0  0  0  0  0  0  0  0  0  0  0
    0.9663    0.1197    1.1783 C   0  0  0  0  0  0  0  0  0  0  0  0
    2.1229   -0.2451    0.5009 O   0  0  0  0  0  0  0  0  0  0  0  0
    2.4151    0.1218   -0.8094 C   0  0  0  0  0  0  0  0  0  0  0  0
    3.7346   -0.4570   -1.1746 C   0  0  0  0  0  0  0  0  0  0  0  0
    4.9010    0.2715   -1.0429 C   0  0  0  0  0  0  0  0  0  0  0  0
    6.1344   -0.2569   -1.3767 C   0  0  0  0  0  0  0  0  0  0  0  0
    6.1923   -1.5575   -1.8567 C   0  0  0  0  0  0  0  0  0  0  0  0
    5.0598   -2.3174   -2.0036 C   0  0  0  0  0  0  0  0  0  0  0  0
    3.8340   -1.7402   -1.6531 C   0  0  0  0  0  0  0  0  0  0  0  0
  1  2  1  0
  2  3  1  0
  3  4  2  0
  4  5  1  0
  5  6  2  0
  6  7  1  0
  7  8  1  0
  8  9  2  0
  9 10  1  0
 10 11  2  0
 11 12  1  0
 11 13  1  0
 13 14  2  0
 14 15  1  0
  6 16  1  0
 16 17  2  0
 17 18  1  0
 18 19  1  0
 19 20  1  0
 20 21  2  0
 21 22  1  0
 22 23  2  0
 23 24  1  0
 24 25  2  0
 17  3  1  0
 25 20  1  0
 14  8  1  0
M  END
>  <zinc_id>  (628) 
ZINC000013532881

>  <ortholog_name>  (628) 
DRTS_PLAFK

>  <gene_name>  (628) 
DRTS_PLAFK

>  <affinity>  (628) 
5.24

>  <chembldocid>  (628) 
17636

>  <title>  (628) 
None

>  <reference.pubmed_id>  (628) 
14711307

>  <reference.doi>  (628) 
None

>  <reference.chembl_id>  (628) 
CHEMBL1148379

>  <reference.journal>  (628) 
J. Med. Chem.

>  <reference.year>  (628) 
2004

$$$$

     RDKit          3D

 25 27  0  0  0  0  0  0  0  0999 V2000
    1.3875   -1.4414    4.4769 C   0  0  0  0  0  0  0  0  0  0  0  0
    1.6856   -1.0680    3.1398 O   0  0  0  0  0  0  0  0  0  0  0  0
    0.7468   -0.2823    2.4751 C   0  0  0  0  0  0  0  0  0  0  0  0
   -0.4375    0.1275    3.0791 C   0  0  0  0  0  0  0  0  0  0  0  0
   -1.3663    0.9058    2.4199 C   0  0  0  0  0  0  0  0  0  0  0  0
   -1.1437    1.3095    1.1144 C   0  0  0  0  0  0  0  0  0  0  0  0
   -2.1199    2.1490    0.3637 C   0  0  0  0  0  0  0  0  0  0  0  0
   -3.0927    1.3464   -0.3837 C   0  0  0  0  0  0  0  0  0  0  0  0
   -2.9815    1.2065   -1.7439 C   0  0  0  0  0  0  0  0  0  0  0  0
   -3.8842    0.4631   -2.4370 N   0  0  0  0  0  0  0  0  0  0  0  0
   -4.9115   -0.1594   -1.8308 C   0  0  0  0  0  0  0  0  0  0  0  0
   -5.8687   -0.9443   -2.5419 N   0  0  0  0  0  0  0  0  0  0  0  0
   -5.0142   -0.0166   -0.4910 N   0  0  0  0  0  0  0  0  0  0  0  0
   -4.1478    0.7072    0.2395 C   0  0  0  0  0  0  0  0  0  0  0  0
   -4.2481    0.8607    1.6488 N   0  0  0  0  0  0  0  0  0  0  0  0
    0.0357    0.8973    0.5232 C   0  0  0  0  0  0  0  0  0  0  0  0
    0.9663    0.1197    1.1783 C   0  0  0  0  0  0  0  0  0  0  0  0
    2.1229   -0.2451    0.5009 O   0  0  0  0  0  0  0  0  0  0  0  0
    2.4151    0.1218   -0.8094 C   0  0  0  0  0  0  0  0  0  0  0  0
    3.7346   -0.4570   -1.1746 C   0  0  0  0  0  0  0  0  0  0  0  0
    4.9010    0.2715   -1.0429 C   0  0  0  0  0  0  0  0  0  0  0  0
    6.1344   -0.2569   -1.3767 C   0  0  0  0  0  0  0  0  0  0  0  0
    6.1923   -1.5575   -1.8567 C   0  0  0  0  0  0  0  0  0  0  0  0
    5.0598   -2.3174   -2.0036 C   0  0  0  0  0  0  0  0  0  0  0  0
    3.8340   -1.7402   -1.6531 C   0  0  0  0  0  0  0  0  0  0  0  0
  1  2  1  0
  2  3  1  0
  3  4  2  0
  4  5  1  0
  5  6  2  0
  6  7  1  0
  7  8  1  0
  8  9  2  0
  9 10  1  0
 10 11  2  0
 11 12  1  0
 11 13  1  0
 13 14  2  0
 14 15  1  0
  6 16  1  0
 16 17  2  0
 17 18  1  0
 18 19  1  0
 19 20  1  0
 20 21  2  0
 21 22  1  0
 22 23  2  0
 23 24  1  0
 24 25  2  0
 17  3  1  0
 25 20  1  0
 14  8  1  0
M  END
>  <zinc_id>  (629) 
ZINC000013532881

>  <ortholog_name>  (629) 
DRTS_PLAFK

>  <gene_name>  (629) 
DRTS_PLAFK

>  <affinity>  (629) 
6.20

>  <chembldocid>  (629) 
17636

>  <title>  (629) 
None

>  <reference.pubmed_id>  (629) 
14711307

>  <reference.doi>  (629) 
None

>  <reference.chembl_id>  (629) 
CHEMBL1148379

>  <reference.journal>  (629) 
J. Med. Chem.

>  <reference.year>  (629) 
2004

$$$$

     RDKit          3D

 25 27  0  0  0  0  0  0  0  0999 V2000
    1.3875   -1.4414    4.4769 C   0  0  0  0  0  0  0  0  0  0  0  0
    1.6856   -1.0680    3.1398 O   0  0  0  0  0  0  0  0  0  0  0  0
    0.7468   -0.2823    2.4751 C   0  0  0  0  0  0  0  0  0  0  0  0
   -0.4375    0.1275    3.0791 C   0  0  0  0  0  0  0  0  0  0  0  0
   -1.3663    0.9058    2.4199 C   0  0  0  0  0  0  0  0  0  0  0  0
   -1.1437    1.3095    1.1144 C   0  0  0  0  0  0  0  0  0  0  0  0
   -2.1199    2.1490    0.3637 C   0  0  0  0  0  0  0  0  0  0  0  0
   -3.0927    1.3464   -0.3837 C   0  0  0  0  0  0  0  0  0  0  0  0
   -2.9815    1.2065   -1.7439 C   0  0  0  0  0  0  0  0  0  0  0  0
   -3.8842    0.4631   -2.4370 N   0  0  0  0  0  0  0  0  0  0  0  0
   -4.9115   -0.1594   -1.8308 C   0  0  0  0  0  0  0  0  0  0  0  0
   -5.8687   -0.9443   -2.5419 N   0  0  0  0  0  0  0  0  0  0  0  0
   -5.0142   -0.0166   -0.4910 N   0  0  0  0  0  0  0  0  0  0  0  0
   -4.1478    0.7072    0.2395 C   0  0  0  0  0  0  0  0  0  0  0  0
   -4.2481    0.8607    1.6488 N   0  0  0  0  0  0  0  0  0  0  0  0
    0.0357    0.8973    0.5232 C   0  0  0  0  0  0  0  0  0  0  0  0
    0.9663    0.1197    1.1783 C   0  0  0  0  0  0  0  0  0  0  0  0
    2.1229   -0.2451    0.5009 O   0  0  0  0  0  0  0  0  0  0  0  0
    2.4151    0.1218   -0.8094 C   0  0  0  0  0  0  0  0  0  0  0  0
    3.7346   -0.4570   -1.1746 C   0  0  0  0  0  0  0  0  0  0  0  0
    4.9010    0.2715   -1.0429 C   0  0  0  0  0  0  0  0  0  0  0  0
    6.1344   -0.2569   -1.3767 C   0  0  0  0  0  0  0  0  0  0  0  0
    6.1923   -1.5575   -1.8567 C   0  0  0  0  0  0  0  0  0  0  0  0
    5.0598   -2.3174   -2.0036 C   0  0  0  0  0  0  0  0  0  0  0  0
    3.8340   -1.7402   -1.6531 C   0  0  0  0  0  0  0  0  0  0  0  0
  1  2  1  0
  2  3  1  0
  3  4  2  0
  4  5  1  0
  5  6  2  0
  6  7  1  0
  7  8  1  0
  8  9  2  0
  9 10  1  0
 10 11  2  0
 11 12  1  0
 11 13  1  0
 13 14  2  0
 14 15  1  0
  6 16  1  0
 16 17  2  0
 17 18  1  0
 18 19  1  0
 19 20  1  0
 20 21  2  0
 21 22  1  0
 22 23  2  0
 23 24  1  0
 24 25  2  0
 17  3  1  0
 25 20  1  0
 14  8  1  0
M  END
>  <zinc_id>  (630) 
ZINC000013532881

>  <ortholog_name>  (630) 
DRTS_PLAFK

>  <gene_name>  (630) 
DRTS_PLAFK

>  <affinity>  (630) 
8.14

>  <chembldocid>  (630) 
17636

>  <title>  (630) 
None

>  <reference.pubmed_id>  (630) 
14711307

>  <reference.doi>  (630) 
None

>  <reference.chembl_id>  (630) 
CHEMBL1148379

>  <reference.journal>  (630) 
J. Med. Chem.

>  <reference.year>  (630) 
2004

$$$$

     RDKit          3D

 28 30  0  0  0  0  0  0  0  0999 V2000
   -0.0954    3.7409   -1.5736 C   0  0  0  0  0  0  0  0  0  0  0  0
    0.3436    2.6526   -2.5506 C   0  0  0  0  0  0  0  0  0  0  0  0
    0.9266    1.5843   -1.8094 O   0  0  0  0  0  0  0  0  0  0  0  0
    0.1937    0.9038   -0.8518 C   0  0  0  0  0  0  0  0  0  0  0  0
   -1.1111    1.2740   -0.6249 C   0  0  0  0  0  0  0  0  0  0  0  0
   -1.9021    0.6440    0.3110 C   0  0  0  0  0  0  0  0  0  0  0  0
   -3.2808    1.0934    0.4947 C   0  0  0  0  0  0  0  0  0  0  0  0
   -4.2414    0.3590   -0.3898 C   0  0  0  0  0  0  0  0  0  0  0  0
   -4.7739    0.9336   -1.5255 C   0  0  0  0  0  0  0  0  0  0  0  0
   -5.6361    0.2535   -2.3064 N   0  0  0  0  0  0  0  0  0  0  0  0
   -6.0183   -1.0079   -2.0220 C   0  0  0  0  0  0  0  0  0  0  0  0
   -6.9301   -1.7110   -2.8586 N   0  0  0  0  0  0  0  0  0  0  0  0
   -5.5015   -1.5727   -0.9153 N   0  0  0  0  0  0  0  0  0  0  0  0
   -4.6387   -0.9312   -0.1080 C   0  0  0  0  0  0  0  0  0  0  0  0
   -4.0829   -1.5203    1.0707 N   0  0  0  0  0  0  0  0  0  0  0  0
   -1.3361   -0.3880    1.0266 C   0  0  0  0  0  0  0  0  0  0  0  0
   -0.0176   -0.7625    0.7978 C   0  0  0  0  0  0  0  0  0  0  0  0
    0.7552   -0.1181   -0.1435 C   0  0  0  0  0  0  0  0  0  0  0  0
    2.0839   -0.4863   -0.3825 O   0  0  0  0  0  0  0  0  0  0  0  0
    2.6474   -1.5544    0.3681 C   0  0  0  0  0  0  0  0  0  0  0  0
    2.5867   -1.1752    1.8200 C   0  0  0  0  0  0  0  0  0  0  0  0
    3.3862    0.1035    2.0034 C   0  0  0  0  0  0  0  0  0  0  0  0
    4.7860   -0.1419    1.5903 C   0  0  0  0  0  0  0  0  0  0  0  0
    5.7026   -0.5922    2.5375 C   0  0  0  0  0  0  0  0  0  0  0  0
    7.0091   -0.8362    2.2195 C   0  0  0  0  0  0  0  0  0  0  0  0
    7.4256   -0.6281    0.9192 C   0  0  0  0  0  0  0  0  0  0  0  0
    6.5177   -0.1821   -0.0185 C   0  0  0  0  0  0  0  0  0  0  0  0
    5.2018    0.0656    0.2938 C   0  0  0  0  0  0  0  0  0  0  0  0
  1  2  1  0
  2  3  1  0
  3  4  1  0
  4  5  2  0
  5  6  1  0
  6  7  1  0
  7  8  1  0
  8  9  2  0
  9 10  1  0
 10 11  2  0
 11 12  1  0
 11 13  1  0
 13 14  2  0
 14 15  1  0
  6 16  2  0
 16 17  1  0
 17 18  2  0
 18 19  1  0
 19 20  1  0
 20 21  1  0
 21 22  1  0
 22 23  1  0
 23 24  2  0
 24 25  1  0
 25 26  2  0
 26 27  1  0
 27 28  2  0
 18  4  1  0
 28 23  1  0
 14  8  1  0
M  END
>  <zinc_id>  (631) 
ZINC000013532888

>  <ortholog_name>  (631) 
DRTS_PLAFK

>  <gene_name>  (631) 
DRTS_PLAFK

>  <affinity>  (631) 
9.00

>  <chembldocid>  (631) 
17636

>  <title>  (631) 
None

>  <reference.pubmed_id>  (631) 
14711307

>  <reference.doi>  (631) 
None

>  <reference.chembl_id>  (631) 
CHEMBL1148379

>  <reference.journal>  (631) 
J. Med. Chem.

>  <reference.year>  (631) 
2004

$$$$

     RDKit          3D

 28 30  0  0  0  0  0  0  0  0999 V2000
   -0.0954    3.7409   -1.5736 C   0  0  0  0  0  0  0  0  0  0  0  0
    0.3436    2.6526   -2.5506 C   0  0  0  0  0  0  0  0  0  0  0  0
    0.9266    1.5843   -1.8094 O   0  0  0  0  0  0  0  0  0  0  0  0
    0.1937    0.9038   -0.8518 C   0  0  0  0  0  0  0  0  0  0  0  0
   -1.1111    1.2740   -0.6249 C   0  0  0  0  0  0  0  0  0  0  0  0
   -1.9021    0.6440    0.3110 C   0  0  0  0  0  0  0  0  0  0  0  0
   -3.2808    1.0934    0.4947 C   0  0  0  0  0  0  0  0  0  0  0  0
   -4.2414    0.3590   -0.3898 C   0  0  0  0  0  0  0  0  0  0  0  0
   -4.7739    0.9336   -1.5255 C   0  0  0  0  0  0  0  0  0  0  0  0
   -5.6361    0.2535   -2.3064 N   0  0  0  0  0  0  0  0  0  0  0  0
   -6.0183   -1.0079   -2.0220 C   0  0  0  0  0  0  0  0  0  0  0  0
   -6.9301   -1.7110   -2.8586 N   0  0  0  0  0  0  0  0  0  0  0  0
   -5.5015   -1.5727   -0.9153 N   0  0  0  0  0  0  0  0  0  0  0  0
   -4.6387   -0.9312   -0.1080 C   0  0  0  0  0  0  0  0  0  0  0  0
   -4.0829   -1.5203    1.0707 N   0  0  0  0  0  0  0  0  0  0  0  0
   -1.3361   -0.3880    1.0266 C   0  0  0  0  0  0  0  0  0  0  0  0
   -0.0176   -0.7625    0.7978 C   0  0  0  0  0  0  0  0  0  0  0  0
    0.7552   -0.1181   -0.1435 C   0  0  0  0  0  0  0  0  0  0  0  0
    2.0839   -0.4863   -0.3825 O   0  0  0  0  0  0  0  0  0  0  0  0
    2.6474   -1.5544    0.3681 C   0  0  0  0  0  0  0  0  0  0  0  0
    2.5867   -1.1752    1.8200 C   0  0  0  0  0  0  0  0  0  0  0  0
    3.3862    0.1035    2.0034 C   0  0  0  0  0  0  0  0  0  0  0  0
    4.7860   -0.1419    1.5903 C   0  0  0  0  0  0  0  0  0  0  0  0
    5.7026   -0.5922    2.5375 C   0  0  0  0  0  0  0  0  0  0  0  0
    7.0091   -0.8362    2.2195 C   0  0  0  0  0  0  0  0  0  0  0  0
    7.4256   -0.6281    0.9192 C   0  0  0  0  0  0  0  0  0  0  0  0
    6.5177   -0.1821   -0.0185 C   0  0  0  0  0  0  0  0  0  0  0  0
    5.2018    0.0656    0.2938 C   0  0  0  0  0  0  0  0  0  0  0  0
  1  2  1  0
  2  3  1  0
  3  4  1  0
  4  5  2  0
  5  6  1  0
  6  7  1  0
  7  8  1  0
  8  9  2  0
  9 10  1  0
 10 11  2  0
 11 12  1  0
 11 13  1  0
 13 14  2  0
 14 15  1  0
  6 16  2  0
 16 17  1  0
 17 18  2  0
 18 19  1  0
 19 20  1  0
 20 21  1  0
 21 22  1  0
 22 23  1  0
 23 24  2  0
 24 25  1  0
 25 26  2  0
 26 27  1  0
 27 28  2  0
 18  4  1  0
 28 23  1  0
 14  8  1  0
M  END
>  <zinc_id>  (632) 
ZINC000013532888

>  <ortholog_name>  (632) 
DRTS_PLAFK

>  <gene_name>  (632) 
DRTS_PLAFK

>  <affinity>  (632) 
7.97

>  <chembldocid>  (632) 
17636

>  <title>  (632) 
None

>  <reference.pubmed_id>  (632) 
14711307

>  <reference.doi>  (632) 
None

>  <reference.chembl_id>  (632) 
CHEMBL1148379

>  <reference.journal>  (632) 
J. Med. Chem.

>  <reference.year>  (632) 
2004

$$$$

     RDKit          3D

 28 30  0  0  0  0  0  0  0  0999 V2000
   -0.0954    3.7409   -1.5736 C   0  0  0  0  0  0  0  0  0  0  0  0
    0.3436    2.6526   -2.5506 C   0  0  0  0  0  0  0  0  0  0  0  0
    0.9266    1.5843   -1.8094 O   0  0  0  0  0  0  0  0  0  0  0  0
    0.1937    0.9038   -0.8518 C   0  0  0  0  0  0  0  0  0  0  0  0
   -1.1111    1.2740   -0.6249 C   0  0  0  0  0  0  0  0  0  0  0  0
   -1.9021    0.6440    0.3110 C   0  0  0  0  0  0  0  0  0  0  0  0
   -3.2808    1.0934    0.4947 C   0  0  0  0  0  0  0  0  0  0  0  0
   -4.2414    0.3590   -0.3898 C   0  0  0  0  0  0  0  0  0  0  0  0
   -4.7739    0.9336   -1.5255 C   0  0  0  0  0  0  0  0  0  0  0  0
   -5.6361    0.2535   -2.3064 N   0  0  0  0  0  0  0  0  0  0  0  0
   -6.0183   -1.0079   -2.0220 C   0  0  0  0  0  0  0  0  0  0  0  0
   -6.9301   -1.7110   -2.8586 N   0  0  0  0  0  0  0  0  0  0  0  0
   -5.5015   -1.5727   -0.9153 N   0  0  0  0  0  0  0  0  0  0  0  0
   -4.6387   -0.9312   -0.1080 C   0  0  0  0  0  0  0  0  0  0  0  0
   -4.0829   -1.5203    1.0707 N   0  0  0  0  0  0  0  0  0  0  0  0
   -1.3361   -0.3880    1.0266 C   0  0  0  0  0  0  0  0  0  0  0  0
   -0.0176   -0.7625    0.7978 C   0  0  0  0  0  0  0  0  0  0  0  0
    0.7552   -0.1181   -0.1435 C   0  0  0  0  0  0  0  0  0  0  0  0
    2.0839   -0.4863   -0.3825 O   0  0  0  0  0  0  0  0  0  0  0  0
    2.6474   -1.5544    0.3681 C   0  0  0  0  0  0  0  0  0  0  0  0
    2.5867   -1.1752    1.8200 C   0  0  0  0  0  0  0  0  0  0  0  0
    3.3862    0.1035    2.0034 C   0  0  0  0  0  0  0  0  0  0  0  0
    4.7860   -0.1419    1.5903 C   0  0  0  0  0  0  0  0  0  0  0  0
    5.7026   -0.5922    2.5375 C   0  0  0  0  0  0  0  0  0  0  0  0
    7.0091   -0.8362    2.2195 C   0  0  0  0  0  0  0  0  0  0  0  0
    7.4256   -0.6281    0.9192 C   0  0  0  0  0  0  0  0  0  0  0  0
    6.5177   -0.1821   -0.0185 C   0  0  0  0  0  0  0  0  0  0  0  0
    5.2018    0.0656    0.2938 C   0  0  0  0  0  0  0  0  0  0  0  0
  1  2  1  0
  2  3  1  0
  3  4  1  0
  4  5  2  0
  5  6  1  0
  6  7  1  0
  7  8  1  0
  8  9  2  0
  9 10  1  0
 10 11  2  0
 11 12  1  0
 11 13  1  0
 13 14  2  0
 14 15  1  0
  6 16  2  0
 16 17  1  0
 17 18  2  0
 18 19  1  0
 19 20  1  0
 20 21  1  0
 21 22  1  0
 22 23  1  0
 23 24  2  0
 24 25  1  0
 25 26  2  0
 26 27  1  0
 27 28  2  0
 18  4  1  0
 28 23  1  0
 14  8  1  0
M  END
>  <zinc_id>  (633) 
ZINC000013532888

>  <ortholog_name>  (633) 
DRTS_PLAFK

>  <gene_name>  (633) 
DRTS_PLAFK

>  <affinity>  (633) 
6.43

>  <chembldocid>  (633) 
17636

>  <title>  (633) 
None

>  <reference.pubmed_id>  (633) 
14711307

>  <reference.doi>  (633) 
None

>  <reference.chembl_id>  (633) 
CHEMBL1148379

>  <reference.journal>  (633) 
J. Med. Chem.

>  <reference.year>  (633) 
2004

$$$$

     RDKit          3D

 28 30  0  0  0  0  0  0  0  0999 V2000
   -0.0954    3.7409   -1.5736 C   0  0  0  0  0  0  0  0  0  0  0  0
    0.3436    2.6526   -2.5506 C   0  0  0  0  0  0  0  0  0  0  0  0
    0.9266    1.5843   -1.8094 O   0  0  0  0  0  0  0  0  0  0  0  0
    0.1937    0.9038   -0.8518 C   0  0  0  0  0  0  0  0  0  0  0  0
   -1.1111    1.2740   -0.6249 C   0  0  0  0  0  0  0  0  0  0  0  0
   -1.9021    0.6440    0.3110 C   0  0  0  0  0  0  0  0  0  0  0  0
   -3.2808    1.0934    0.4947 C   0  0  0  0  0  0  0  0  0  0  0  0
   -4.2414    0.3590   -0.3898 C   0  0  0  0  0  0  0  0  0  0  0  0
   -4.7739    0.9336   -1.5255 C   0  0  0  0  0  0  0  0  0  0  0  0
   -5.6361    0.2535   -2.3064 N   0  0  0  0  0  0  0  0  0  0  0  0
   -6.0183   -1.0079   -2.0220 C   0  0  0  0  0  0  0  0  0  0  0  0
   -6.9301   -1.7110   -2.8586 N   0  0  0  0  0  0  0  0  0  0  0  0
   -5.5015   -1.5727   -0.9153 N   0  0  0  0  0  0  0  0  0  0  0  0
   -4.6387   -0.9312   -0.1080 C   0  0  0  0  0  0  0  0  0  0  0  0
   -4.0829   -1.5203    1.0707 N   0  0  0  0  0  0  0  0  0  0  0  0
   -1.3361   -0.3880    1.0266 C   0  0  0  0  0  0  0  0  0  0  0  0
   -0.0176   -0.7625    0.7978 C   0  0  0  0  0  0  0  0  0  0  0  0
    0.7552   -0.1181   -0.1435 C   0  0  0  0  0  0  0  0  0  0  0  0
    2.0839   -0.4863   -0.3825 O   0  0  0  0  0  0  0  0  0  0  0  0
    2.6474   -1.5544    0.3681 C   0  0  0  0  0  0  0  0  0  0  0  0
    2.5867   -1.1752    1.8200 C   0  0  0  0  0  0  0  0  0  0  0  0
    3.3862    0.1035    2.0034 C   0  0  0  0  0  0  0  0  0  0  0  0
    4.7860   -0.1419    1.5903 C   0  0  0  0  0  0  0  0  0  0  0  0
    5.7026   -0.5922    2.5375 C   0  0  0  0  0  0  0  0  0  0  0  0
    7.0091   -0.8362    2.2195 C   0  0  0  0  0  0  0  0  0  0  0  0
    7.4256   -0.6281    0.9192 C   0  0  0  0  0  0  0  0  0  0  0  0
    6.5177   -0.1821   -0.0185 C   0  0  0  0  0  0  0  0  0  0  0  0
    5.2018    0.0656    0.2938 C   0  0  0  0  0  0  0  0  0  0  0  0
  1  2  1  0
  2  3  1  0
  3  4  1  0
  4  5  2  0
  5  6  1  0
  6  7  1  0
  7  8  1  0
  8  9  2  0
  9 10  1  0
 10 11  2  0
 11 12  1  0
 11 13  1  0
 13 14  2  0
 14 15  1  0
  6 16  2  0
 16 17  1  0
 17 18  2  0
 18 19  1  0
 19 20  1  0
 20 21  1  0
 21 22  1  0
 22 23  1  0
 23 24  2  0
 24 25  1  0
 25 26  2  0
 26 27  1  0
 27 28  2  0
 18  4  1  0
 28 23  1  0
 14  8  1  0
M  END
>  <zinc_id>  (634) 
ZINC000013532888

>  <ortholog_name>  (634) 
DRTS_PLAFK

>  <gene_name>  (634) 
DRTS_PLAFK

>  <affinity>  (634) 
6.28

>  <chembldocid>  (634) 
17636

>  <title>  (634) 
None

>  <reference.pubmed_id>  (634) 
14711307

>  <reference.doi>  (634) 
None

>  <reference.chembl_id>  (634) 
CHEMBL1148379

>  <reference.journal>  (634) 
J. Med. Chem.

>  <reference.year>  (634) 
2004

$$$$

     RDKit          3D

 26 28  0  0  0  0  0  0  0  0999 V2000
    6.7485    1.8303    2.1585 N   0  0  0  0  0  0  0  0  0  0  0  0
    5.9321    0.8125    1.5886 C   0  0  0  0  0  0  0  0  0  0  0  0
    5.3705   -0.1569    2.3178 N   0  0  0  0  0  0  0  0  0  0  0  0
    4.6137   -1.0922    1.7514 C   0  0  0  0  0  0  0  0  0  0  0  0
    4.4078   -1.0573    0.3906 C   0  0  0  0  0  0  0  0  0  0  0  0
    3.5791   -2.0599   -0.3374 C   0  0  0  0  0  0  0  0  0  0  0  0
    2.2756   -1.4714   -0.6767 C   0  0  0  0  0  0  0  0  0  0  0  0
    1.2168   -1.6103    0.1840 C   0  0  0  0  0  0  0  0  0  0  0  0
   -0.0236   -1.0612   -0.1204 C   0  0  0  0  0  0  0  0  0  0  0  0
   -0.2043   -0.3723   -1.2871 C   0  0  0  0  0  0  0  0  0  0  0  0
   -1.4402    0.1620   -1.5674 O   0  0  0  0  0  0  0  0  0  0  0  0
   -2.5024    0.0048   -0.6760 C   0  0  0  0  0  0  0  0  0  0  0  0
   -2.1741    0.6025    0.6361 C   0  0  0  0  0  0  0  0  0  0  0  0
   -3.1984    0.5206    1.6906 C   0  0  0  0  0  0  0  0  0  0  0  0
   -4.4185    1.0953    1.5132 O   0  0  0  0  0  0  0  0  0  0  0  0
   -5.4093    0.8909    0.6108 C   0  0  0  0  0  0  0  0  0  0  0  0
   -6.5482    1.6556    0.6918 C   0  0  0  0  0  0  0  0  0  0  0  0
   -7.6019    1.5150   -0.1789 C   0  0  0  0  0  0  0  0  0  0  0  0
   -7.4520    0.5429   -1.1614 C   0  0  0  0  0  0  0  0  0  0  0  0
   -6.3239   -0.2317   -1.2614 C   0  0  0  0  0  0  0  0  0  0  0  0
   -5.3056   -0.0510   -0.3693 C   0  0  0  0  0  0  0  0  0  0  0  0
    0.8720   -0.2333   -2.1573 C   0  0  0  0  0  0  0  0  0  0  0  0
    2.0760   -0.7756   -1.8451 C   0  0  0  0  0  0  0  0  0  0  0  0
    4.9801   -0.0643   -0.3742 C   0  0  0  0  0  0  0  0  0  0  0  0
    4.7957    0.0068   -1.7713 N   0  0  0  0  0  0  0  0  0  0  0  0
    5.7343    0.8535    0.2504 N   0  0  0  0  0  0  0  0  0  0  0  0
  1  2  1  0
  2  3  2  0
  3  4  1  0
  4  5  2  0
  5  6  1  0
  6  7  1  0
  7  8  2  0
  8  9  1  0
  9 10  2  0
 10 11  1  0
 11 12  1  0
 12 13  1  0
 13 14  1  0
 14 15  1  0
 15 16  1  0
 16 17  2  0
 17 18  1  0
 18 19  2  0
 19 20  1  0
 20 21  2  0
 10 22  1  0
 22 23  2  0
  5 24  1  0
 24 25  1  0
 24 26  2  0
 26  2  1  0
 23  7  1  0
 21 16  1  0
M  END
>  <zinc_id>  (635) 
ZINC000013532891

>  <ortholog_name>  (635) 
DRTS_PLAFK

>  <gene_name>  (635) 
DRTS_PLAFK

>  <affinity>  (635) 
6.77

>  <chembldocid>  (635) 
17636

>  <title>  (635) 
None

>  <reference.pubmed_id>  (635) 
14711307

>  <reference.doi>  (635) 
None

>  <reference.chembl_id>  (635) 
CHEMBL1148379

>  <reference.journal>  (635) 
J. Med. Chem.

>  <reference.year>  (635) 
2004

$$$$

     RDKit          3D

 26 28  0  0  0  0  0  0  0  0999 V2000
    6.7485    1.8303    2.1585 N   0  0  0  0  0  0  0  0  0  0  0  0
    5.9321    0.8125    1.5886 C   0  0  0  0  0  0  0  0  0  0  0  0
    5.3705   -0.1569    2.3178 N   0  0  0  0  0  0  0  0  0  0  0  0
    4.6137   -1.0922    1.7514 C   0  0  0  0  0  0  0  0  0  0  0  0
    4.4078   -1.0573    0.3906 C   0  0  0  0  0  0  0  0  0  0  0  0
    3.5791   -2.0599   -0.3374 C   0  0  0  0  0  0  0  0  0  0  0  0
    2.2756   -1.4714   -0.6767 C   0  0  0  0  0  0  0  0  0  0  0  0
    1.2168   -1.6103    0.1840 C   0  0  0  0  0  0  0  0  0  0  0  0
   -0.0236   -1.0612   -0.1204 C   0  0  0  0  0  0  0  0  0  0  0  0
   -0.2043   -0.3723   -1.2871 C   0  0  0  0  0  0  0  0  0  0  0  0
   -1.4402    0.1620   -1.5674 O   0  0  0  0  0  0  0  0  0  0  0  0
   -2.5024    0.0048   -0.6760 C   0  0  0  0  0  0  0  0  0  0  0  0
   -2.1741    0.6025    0.6361 C   0  0  0  0  0  0  0  0  0  0  0  0
   -3.1984    0.5206    1.6906 C   0  0  0  0  0  0  0  0  0  0  0  0
   -4.4185    1.0953    1.5132 O   0  0  0  0  0  0  0  0  0  0  0  0
   -5.4093    0.8909    0.6108 C   0  0  0  0  0  0  0  0  0  0  0  0
   -6.5482    1.6556    0.6918 C   0  0  0  0  0  0  0  0  0  0  0  0
   -7.6019    1.5150   -0.1789 C   0  0  0  0  0  0  0  0  0  0  0  0
   -7.4520    0.5429   -1.1614 C   0  0  0  0  0  0  0  0  0  0  0  0
   -6.3239   -0.2317   -1.2614 C   0  0  0  0  0  0  0  0  0  0  0  0
   -5.3056   -0.0510   -0.3693 C   0  0  0  0  0  0  0  0  0  0  0  0
    0.8720   -0.2333   -2.1573 C   0  0  0  0  0  0  0  0  0  0  0  0
    2.0760   -0.7756   -1.8451 C   0  0  0  0  0  0  0  0  0  0  0  0
    4.9801   -0.0643   -0.3742 C   0  0  0  0  0  0  0  0  0  0  0  0
    4.7957    0.0068   -1.7713 N   0  0  0  0  0  0  0  0  0  0  0  0
    5.7343    0.8535    0.2504 N   0  0  0  0  0  0  0  0  0  0  0  0
  1  2  1  0
  2  3  2  0
  3  4  1  0
  4  5  2  0
  5  6  1  0
  6  7  1  0
  7  8  2  0
  8  9  1  0
  9 10  2  0
 10 11  1  0
 11 12  1  0
 12 13  1  0
 13 14  1  0
 14 15  1  0
 15 16  1  0
 16 17  2  0
 17 18  1  0
 18 19  2  0
 19 20  1  0
 20 21  2  0
 10 22  1  0
 22 23  2  0
  5 24  1  0
 24 25  1  0
 24 26  2  0
 26  2  1  0
 23  7  1  0
 21 16  1  0
M  END
>  <zinc_id>  (636) 
ZINC000013532891

>  <ortholog_name>  (636) 
DRTS_PLAFK

>  <gene_name>  (636) 
DRTS_PLAFK

>  <affinity>  (636) 
5.65

>  <chembldocid>  (636) 
17636

>  <title>  (636) 
None

>  <reference.pubmed_id>  (636) 
14711307

>  <reference.doi>  (636) 
None

>  <reference.chembl_id>  (636) 
CHEMBL1148379

>  <reference.journal>  (636) 
J. Med. Chem.

>  <reference.year>  (636) 
2004

$$$$

     RDKit          3D

 26 28  0  0  0  0  0  0  0  0999 V2000
    6.7485    1.8303    2.1585 N   0  0  0  0  0  0  0  0  0  0  0  0
    5.9321    0.8125    1.5886 C   0  0  0  0  0  0  0  0  0  0  0  0
    5.3705   -0.1569    2.3178 N   0  0  0  0  0  0  0  0  0  0  0  0
    4.6137   -1.0922    1.7514 C   0  0  0  0  0  0  0  0  0  0  0  0
    4.4078   -1.0573    0.3906 C   0  0  0  0  0  0  0  0  0  0  0  0
    3.5791   -2.0599   -0.3374 C   0  0  0  0  0  0  0  0  0  0  0  0
    2.2756   -1.4714   -0.6767 C   0  0  0  0  0  0  0  0  0  0  0  0
    1.2168   -1.6103    0.1840 C   0  0  0  0  0  0  0  0  0  0  0  0
   -0.0236   -1.0612   -0.1204 C   0  0  0  0  0  0  0  0  0  0  0  0
   -0.2043   -0.3723   -1.2871 C   0  0  0  0  0  0  0  0  0  0  0  0
   -1.4402    0.1620   -1.5674 O   0  0  0  0  0  0  0  0  0  0  0  0
   -2.5024    0.0048   -0.6760 C   0  0  0  0  0  0  0  0  0  0  0  0
   -2.1741    0.6025    0.6361 C   0  0  0  0  0  0  0  0  0  0  0  0
   -3.1984    0.5206    1.6906 C   0  0  0  0  0  0  0  0  0  0  0  0
   -4.4185    1.0953    1.5132 O   0  0  0  0  0  0  0  0  0  0  0  0
   -5.4093    0.8909    0.6108 C   0  0  0  0  0  0  0  0  0  0  0  0
   -6.5482    1.6556    0.6918 C   0  0  0  0  0  0  0  0  0  0  0  0
   -7.6019    1.5150   -0.1789 C   0  0  0  0  0  0  0  0  0  0  0  0
   -7.4520    0.5429   -1.1614 C   0  0  0  0  0  0  0  0  0  0  0  0
   -6.3239   -0.2317   -1.2614 C   0  0  0  0  0  0  0  0  0  0  0  0
   -5.3056   -0.0510   -0.3693 C   0  0  0  0  0  0  0  0  0  0  0  0
    0.8720   -0.2333   -2.1573 C   0  0  0  0  0  0  0  0  0  0  0  0
    2.0760   -0.7756   -1.8451 C   0  0  0  0  0  0  0  0  0  0  0  0
    4.9801   -0.0643   -0.3742 C   0  0  0  0  0  0  0  0  0  0  0  0
    4.7957    0.0068   -1.7713 N   0  0  0  0  0  0  0  0  0  0  0  0
    5.7343    0.8535    0.2504 N   0  0  0  0  0  0  0  0  0  0  0  0
  1  2  1  0
  2  3  2  0
  3  4  1  0
  4  5  2  0
  5  6  1  0
  6  7  1  0
  7  8  2  0
  8  9  1  0
  9 10  2  0
 10 11  1  0
 11 12  1  0
 12 13  1  0
 13 14  1  0
 14 15  1  0
 15 16  1  0
 16 17  2  0
 17 18  1  0
 18 19  2  0
 19 20  1  0
 20 21  2  0
 10 22  1  0
 22 23  2  0
  5 24  1  0
 24 25  1  0
 24 26  2  0
 26  2  1  0
 23  7  1  0
 21 16  1  0
M  END
>  <zinc_id>  (637) 
ZINC000013532891

>  <ortholog_name>  (637) 
DRTS_PLAFK

>  <gene_name>  (637) 
DRTS_PLAFK

>  <affinity>  (637) 
6.33

>  <chembldocid>  (637) 
17636

>  <title>  (637) 
None

>  <reference.pubmed_id>  (637) 
14711307

>  <reference.doi>  (637) 
None

>  <reference.chembl_id>  (637) 
CHEMBL1148379

>  <reference.journal>  (637) 
J. Med. Chem.

>  <reference.year>  (637) 
2004

$$$$

     RDKit          3D

 26 28  0  0  0  0  0  0  0  0999 V2000
    6.7485    1.8303    2.1585 N   0  0  0  0  0  0  0  0  0  0  0  0
    5.9321    0.8125    1.5886 C   0  0  0  0  0  0  0  0  0  0  0  0
    5.3705   -0.1569    2.3178 N   0  0  0  0  0  0  0  0  0  0  0  0
    4.6137   -1.0922    1.7514 C   0  0  0  0  0  0  0  0  0  0  0  0
    4.4078   -1.0573    0.3906 C   0  0  0  0  0  0  0  0  0  0  0  0
    3.5791   -2.0599   -0.3374 C   0  0  0  0  0  0  0  0  0  0  0  0
    2.2756   -1.4714   -0.6767 C   0  0  0  0  0  0  0  0  0  0  0  0
    1.2168   -1.6103    0.1840 C   0  0  0  0  0  0  0  0  0  0  0  0
   -0.0236   -1.0612   -0.1204 C   0  0  0  0  0  0  0  0  0  0  0  0
   -0.2043   -0.3723   -1.2871 C   0  0  0  0  0  0  0  0  0  0  0  0
   -1.4402    0.1620   -1.5674 O   0  0  0  0  0  0  0  0  0  0  0  0
   -2.5024    0.0048   -0.6760 C   0  0  0  0  0  0  0  0  0  0  0  0
   -2.1741    0.6025    0.6361 C   0  0  0  0  0  0  0  0  0  0  0  0
   -3.1984    0.5206    1.6906 C   0  0  0  0  0  0  0  0  0  0  0  0
   -4.4185    1.0953    1.5132 O   0  0  0  0  0  0  0  0  0  0  0  0
   -5.4093    0.8909    0.6108 C   0  0  0  0  0  0  0  0  0  0  0  0
   -6.5482    1.6556    0.6918 C   0  0  0  0  0  0  0  0  0  0  0  0
   -7.6019    1.5150   -0.1789 C   0  0  0  0  0  0  0  0  0  0  0  0
   -7.4520    0.5429   -1.1614 C   0  0  0  0  0  0  0  0  0  0  0  0
   -6.3239   -0.2317   -1.2614 C   0  0  0  0  0  0  0  0  0  0  0  0
   -5.3056   -0.0510   -0.3693 C   0  0  0  0  0  0  0  0  0  0  0  0
    0.8720   -0.2333   -2.1573 C   0  0  0  0  0  0  0  0  0  0  0  0
    2.0760   -0.7756   -1.8451 C   0  0  0  0  0  0  0  0  0  0  0  0
    4.9801   -0.0643   -0.3742 C   0  0  0  0  0  0  0  0  0  0  0  0
    4.7957    0.0068   -1.7713 N   0  0  0  0  0  0  0  0  0  0  0  0
    5.7343    0.8535    0.2504 N   0  0  0  0  0  0  0  0  0  0  0  0
  1  2  1  0
  2  3  2  0
  3  4  1  0
  4  5  2  0
  5  6  1  0
  6  7  1  0
  7  8  2  0
  8  9  1  0
  9 10  2  0
 10 11  1  0
 11 12  1  0
 12 13  1  0
 13 14  1  0
 14 15  1  0
 15 16  1  0
 16 17  2  0
 17 18  1  0
 18 19  2  0
 19 20  1  0
 20 21  2  0
 10 22  1  0
 22 23  2  0
  5 24  1  0
 24 25  1  0
 24 26  2  0
 26  2  1  0
 23  7  1  0
 21 16  1  0
M  END
>  <zinc_id>  (638) 
ZINC000013532891

>  <ortholog_name>  (638) 
DRTS_PLAFK

>  <gene_name>  (638) 
DRTS_PLAFK

>  <affinity>  (638) 
8.19

>  <chembldocid>  (638) 
17636

>  <title>  (638) 
None

>  <reference.pubmed_id>  (638) 
14711307

>  <reference.doi>  (638) 
None

>  <reference.chembl_id>  (638) 
CHEMBL1148379

>  <reference.journal>  (638) 
J. Med. Chem.

>  <reference.year>  (638) 
2004

$$$$

     RDKit          3D

 28 30  0  0  0  0  0  0  0  0999 V2000
   -0.9134   -0.3310   -3.9833 C   0  0  0  0  0  0  0  0  0  0  0  0
   -0.1014   -0.5432   -2.8529 O   0  0  0  0  0  0  0  0  0  0  0  0
   -0.4709   -0.0841   -1.5993 C   0  0  0  0  0  0  0  0  0  0  0  0
   -1.6680    0.6061   -1.4258 C   0  0  0  0  0  0  0  0  0  0  0  0
   -2.0574    1.0709   -0.1977 C   0  0  0  0  0  0  0  0  0  0  0  0
   -3.3223    1.7960   -0.0356 C   0  0  0  0  0  0  0  0  0  0  0  0
   -4.4664    0.9165    0.2681 C   0  0  0  0  0  0  0  0  0  0  0  0
   -5.3865    0.6125   -0.6947 C   0  0  0  0  0  0  0  0  0  0  0  0
   -6.4539   -0.2020   -0.4303 N   0  0  0  0  0  0  0  0  0  0  0  0
   -6.5949   -0.7090    0.7994 C   0  0  0  0  0  0  0  0  0  0  0  0
   -7.6806   -1.5682    1.1602 N   0  0  0  0  0  0  0  0  0  0  0  0
   -5.6986   -0.4272    1.7799 N   0  0  0  0  0  0  0  0  0  0  0  0
   -4.6310    0.3842    1.5254 C   0  0  0  0  0  0  0  0  0  0  0  0
   -3.6882    0.6824    2.5529 N   0  0  0  0  0  0  0  0  0  0  0  0
   -1.2512    0.8523    0.8866 C   0  0  0  0  0  0  0  0  0  0  0  0
   -0.0407    0.1638    0.7570 C   0  0  0  0  0  0  0  0  0  0  0  0
    0.3298   -0.2980   -0.5071 C   0  0  0  0  0  0  0  0  0  0  0  0
    1.5135   -0.9881   -0.7171 O   0  0  0  0  0  0  0  0  0  0  0  0
    2.3460   -1.2114    0.4106 C   0  0  0  0  0  0  0  0  0  0  0  0
    2.7117    0.1740    0.9488 C   0  0  0  0  0  0  0  0  0  0  0  0
    3.4410    0.9219   -0.1536 C   0  0  0  0  0  0  0  0  0  0  0  0
    4.5888    0.1949   -0.4844 O   0  0  0  0  0  0  0  0  0  0  0  0
    5.5704   -0.0602    0.4726 C   0  0  0  0  0  0  0  0  0  0  0  0
    6.6934   -0.7789    0.1253 C   0  0  0  0  0  0  0  0  0  0  0  0
    7.6880   -1.0490    1.0549 C   0  0  0  0  0  0  0  0  0  0  0  0
    7.5940   -0.6108    2.3599 C   0  0  0  0  0  0  0  0  0  0  0  0
    6.4736    0.1068    2.7082 C   0  0  0  0  0  0  0  0  0  0  0  0
    5.4752    0.3787    1.7784 C   0  0  0  0  0  0  0  0  0  0  0  0
  1  2  1  0
  2  3  1  0
  3  4  2  0
  4  5  1  0
  5  6  1  0
  6  7  1  0
  7  8  2  0
  8  9  1  0
  9 10  2  0
 10 11  1  0
 10 12  1  0
 12 13  2  0
 13 14  1  0
  5 15  2  0
 15 16  1  0
 16 17  2  0
 17 18  1  0
 18 19  1  0
 19 20  1  0
 20 21  1  0
 21 22  1  0
 22 23  1  0
 23 24  2  0
 24 25  1  0
 25 26  2  0
 26 27  1  0
 27 28  2  0
 17  3  1  0
 28 23  1  0
 13  7  1  0
M  END
>  <zinc_id>  (639) 
ZINC000013532895

>  <ortholog_name>  (639) 
DRTS_PLAFK

>  <gene_name>  (639) 
DRTS_PLAFK

>  <affinity>  (639) 
8.70

>  <chembldocid>  (639) 
17636

>  <title>  (639) 
None

>  <reference.pubmed_id>  (639) 
14711307

>  <reference.doi>  (639) 
None

>  <reference.chembl_id>  (639) 
CHEMBL1148379

>  <reference.journal>  (639) 
J. Med. Chem.

>  <reference.year>  (639) 
2004

$$$$

     RDKit          3D

 28 30  0  0  0  0  0  0  0  0999 V2000
   -0.9134   -0.3310   -3.9833 C   0  0  0  0  0  0  0  0  0  0  0  0
   -0.1014   -0.5432   -2.8529 O   0  0  0  0  0  0  0  0  0  0  0  0
   -0.4709   -0.0841   -1.5993 C   0  0  0  0  0  0  0  0  0  0  0  0
   -1.6680    0.6061   -1.4258 C   0  0  0  0  0  0  0  0  0  0  0  0
   -2.0574    1.0709   -0.1977 C   0  0  0  0  0  0  0  0  0  0  0  0
   -3.3223    1.7960   -0.0356 C   0  0  0  0  0  0  0  0  0  0  0  0
   -4.4664    0.9165    0.2681 C   0  0  0  0  0  0  0  0  0  0  0  0
   -5.3865    0.6125   -0.6947 C   0  0  0  0  0  0  0  0  0  0  0  0
   -6.4539   -0.2020   -0.4303 N   0  0  0  0  0  0  0  0  0  0  0  0
   -6.5949   -0.7090    0.7994 C   0  0  0  0  0  0  0  0  0  0  0  0
   -7.6806   -1.5682    1.1602 N   0  0  0  0  0  0  0  0  0  0  0  0
   -5.6986   -0.4272    1.7799 N   0  0  0  0  0  0  0  0  0  0  0  0
   -4.6310    0.3842    1.5254 C   0  0  0  0  0  0  0  0  0  0  0  0
   -3.6882    0.6824    2.5529 N   0  0  0  0  0  0  0  0  0  0  0  0
   -1.2512    0.8523    0.8866 C   0  0  0  0  0  0  0  0  0  0  0  0
   -0.0407    0.1638    0.7570 C   0  0  0  0  0  0  0  0  0  0  0  0
    0.3298   -0.2980   -0.5071 C   0  0  0  0  0  0  0  0  0  0  0  0
    1.5135   -0.9881   -0.7171 O   0  0  0  0  0  0  0  0  0  0  0  0
    2.3460   -1.2114    0.4106 C   0  0  0  0  0  0  0  0  0  0  0  0
    2.7117    0.1740    0.9488 C   0  0  0  0  0  0  0  0  0  0  0  0
    3.4410    0.9219   -0.1536 C   0  0  0  0  0  0  0  0  0  0  0  0
    4.5888    0.1949   -0.4844 O   0  0  0  0  0  0  0  0  0  0  0  0
    5.5704   -0.0602    0.4726 C   0  0  0  0  0  0  0  0  0  0  0  0
    6.6934   -0.7789    0.1253 C   0  0  0  0  0  0  0  0  0  0  0  0
    7.6880   -1.0490    1.0549 C   0  0  0  0  0  0  0  0  0  0  0  0
    7.5940   -0.6108    2.3599 C   0  0  0  0  0  0  0  0  0  0  0  0
    6.4736    0.1068    2.7082 C   0  0  0  0  0  0  0  0  0  0  0  0
    5.4752    0.3787    1.7784 C   0  0  0  0  0  0  0  0  0  0  0  0
  1  2  1  0
  2  3  1  0
  3  4  2  0
  4  5  1  0
  5  6  1  0
  6  7  1  0
  7  8  2  0
  8  9  1  0
  9 10  2  0
 10 11  1  0
 10 12  1  0
 12 13  2  0
 13 14  1  0
  5 15  2  0
 15 16  1  0
 16 17  2  0
 17 18  1  0
 18 19  1  0
 19 20  1  0
 20 21  1  0
 21 22  1  0
 22 23  1  0
 23 24  2  0
 24 25  1  0
 25 26  2  0
 26 27  1  0
 27 28  2  0
 17  3  1  0
 28 23  1  0
 13  7  1  0
M  END
>  <zinc_id>  (640) 
ZINC000013532895

>  <ortholog_name>  (640) 
DRTS_PLAFK

>  <gene_name>  (640) 
DRTS_PLAFK

>  <affinity>  (640) 
6.59

>  <chembldocid>  (640) 
17636

>  <title>  (640) 
None

>  <reference.pubmed_id>  (640) 
14711307

>  <reference.doi>  (640) 
None

>  <reference.chembl_id>  (640) 
CHEMBL1148379

>  <reference.journal>  (640) 
J. Med. Chem.

>  <reference.year>  (640) 
2004

$$$$

     RDKit          3D

 28 30  0  0  0  0  0  0  0  0999 V2000
   -0.9134   -0.3310   -3.9833 C   0  0  0  0  0  0  0  0  0  0  0  0
   -0.1014   -0.5432   -2.8529 O   0  0  0  0  0  0  0  0  0  0  0  0
   -0.4709   -0.0841   -1.5993 C   0  0  0  0  0  0  0  0  0  0  0  0
   -1.6680    0.6061   -1.4258 C   0  0  0  0  0  0  0  0  0  0  0  0
   -2.0574    1.0709   -0.1977 C   0  0  0  0  0  0  0  0  0  0  0  0
   -3.3223    1.7960   -0.0356 C   0  0  0  0  0  0  0  0  0  0  0  0
   -4.4664    0.9165    0.2681 C   0  0  0  0  0  0  0  0  0  0  0  0
   -5.3865    0.6125   -0.6947 C   0  0  0  0  0  0  0  0  0  0  0  0
   -6.4539   -0.2020   -0.4303 N   0  0  0  0  0  0  0  0  0  0  0  0
   -6.5949   -0.7090    0.7994 C   0  0  0  0  0  0  0  0  0  0  0  0
   -7.6806   -1.5682    1.1602 N   0  0  0  0  0  0  0  0  0  0  0  0
   -5.6986   -0.4272    1.7799 N   0  0  0  0  0  0  0  0  0  0  0  0
   -4.6310    0.3842    1.5254 C   0  0  0  0  0  0  0  0  0  0  0  0
   -3.6882    0.6824    2.5529 N   0  0  0  0  0  0  0  0  0  0  0  0
   -1.2512    0.8523    0.8866 C   0  0  0  0  0  0  0  0  0  0  0  0
   -0.0407    0.1638    0.7570 C   0  0  0  0  0  0  0  0  0  0  0  0
    0.3298   -0.2980   -0.5071 C   0  0  0  0  0  0  0  0  0  0  0  0
    1.5135   -0.9881   -0.7171 O   0  0  0  0  0  0  0  0  0  0  0  0
    2.3460   -1.2114    0.4106 C   0  0  0  0  0  0  0  0  0  0  0  0
    2.7117    0.1740    0.9488 C   0  0  0  0  0  0  0  0  0  0  0  0
    3.4410    0.9219   -0.1536 C   0  0  0  0  0  0  0  0  0  0  0  0
    4.5888    0.1949   -0.4844 O   0  0  0  0  0  0  0  0  0  0  0  0
    5.5704   -0.0602    0.4726 C   0  0  0  0  0  0  0  0  0  0  0  0
    6.6934   -0.7789    0.1253 C   0  0  0  0  0  0  0  0  0  0  0  0
    7.6880   -1.0490    1.0549 C   0  0  0  0  0  0  0  0  0  0  0  0
    7.5940   -0.6108    2.3599 C   0  0  0  0  0  0  0  0  0  0  0  0
    6.4736    0.1068    2.7082 C   0  0  0  0  0  0  0  0  0  0  0  0
    5.4752    0.3787    1.7784 C   0  0  0  0  0  0  0  0  0  0  0  0
  1  2  1  0
  2  3  1  0
  3  4  2  0
  4  5  1  0
  5  6  1  0
  6  7  1  0
  7  8  2  0
  8  9  1  0
  9 10  2  0
 10 11  1  0
 10 12  1  0
 12 13  2  0
 13 14  1  0
  5 15  2  0
 15 16  1  0
 16 17  2  0
 17 18  1  0
 18 19  1  0
 19 20  1  0
 20 21  1  0
 21 22  1  0
 22 23  1  0
 23 24  2  0
 24 25  1  0
 25 26  2  0
 26 27  1  0
 27 28  2  0
 17  3  1  0
 28 23  1  0
 13  7  1  0
M  END
>  <zinc_id>  (641) 
ZINC000013532895

>  <ortholog_name>  (641) 
DRTS_PLAFK

>  <gene_name>  (641) 
DRTS_PLAFK

>  <affinity>  (641) 
7.43

>  <chembldocid>  (641) 
17636

>  <title>  (641) 
None

>  <reference.pubmed_id>  (641) 
14711307

>  <reference.doi>  (641) 
None

>  <reference.chembl_id>  (641) 
CHEMBL1148379

>  <reference.journal>  (641) 
J. Med. Chem.

>  <reference.year>  (641) 
2004

$$$$

     RDKit          3D

 28 30  0  0  0  0  0  0  0  0999 V2000
   -0.9134   -0.3310   -3.9833 C   0  0  0  0  0  0  0  0  0  0  0  0
   -0.1014   -0.5432   -2.8529 O   0  0  0  0  0  0  0  0  0  0  0  0
   -0.4709   -0.0841   -1.5993 C   0  0  0  0  0  0  0  0  0  0  0  0
   -1.6680    0.6061   -1.4258 C   0  0  0  0  0  0  0  0  0  0  0  0
   -2.0574    1.0709   -0.1977 C   0  0  0  0  0  0  0  0  0  0  0  0
   -3.3223    1.7960   -0.0356 C   0  0  0  0  0  0  0  0  0  0  0  0
   -4.4664    0.9165    0.2681 C   0  0  0  0  0  0  0  0  0  0  0  0
   -5.3865    0.6125   -0.6947 C   0  0  0  0  0  0  0  0  0  0  0  0
   -6.4539   -0.2020   -0.4303 N   0  0  0  0  0  0  0  0  0  0  0  0
   -6.5949   -0.7090    0.7994 C   0  0  0  0  0  0  0  0  0  0  0  0
   -7.6806   -1.5682    1.1602 N   0  0  0  0  0  0  0  0  0  0  0  0
   -5.6986   -0.4272    1.7799 N   0  0  0  0  0  0  0  0  0  0  0  0
   -4.6310    0.3842    1.5254 C   0  0  0  0  0  0  0  0  0  0  0  0
   -3.6882    0.6824    2.5529 N   0  0  0  0  0  0  0  0  0  0  0  0
   -1.2512    0.8523    0.8866 C   0  0  0  0  0  0  0  0  0  0  0  0
   -0.0407    0.1638    0.7570 C   0  0  0  0  0  0  0  0  0  0  0  0
    0.3298   -0.2980   -0.5071 C   0  0  0  0  0  0  0  0  0  0  0  0
    1.5135   -0.9881   -0.7171 O   0  0  0  0  0  0  0  0  0  0  0  0
    2.3460   -1.2114    0.4106 C   0  0  0  0  0  0  0  0  0  0  0  0
    2.7117    0.1740    0.9488 C   0  0  0  0  0  0  0  0  0  0  0  0
    3.4410    0.9219   -0.1536 C   0  0  0  0  0  0  0  0  0  0  0  0
    4.5888    0.1949   -0.4844 O   0  0  0  0  0  0  0  0  0  0  0  0
    5.5704   -0.0602    0.4726 C   0  0  0  0  0  0  0  0  0  0  0  0
    6.6934   -0.7789    0.1253 C   0  0  0  0  0  0  0  0  0  0  0  0
    7.6880   -1.0490    1.0549 C   0  0  0  0  0  0  0  0  0  0  0  0
    7.5940   -0.6108    2.3599 C   0  0  0  0  0  0  0  0  0  0  0  0
    6.4736    0.1068    2.7082 C   0  0  0  0  0  0  0  0  0  0  0  0
    5.4752    0.3787    1.7784 C   0  0  0  0  0  0  0  0  0  0  0  0
  1  2  1  0
  2  3  1  0
  3  4  2  0
  4  5  1  0
  5  6  1  0
  6  7  1  0
  7  8  2  0
  8  9  1  0
  9 10  2  0
 10 11  1  0
 10 12  1  0
 12 13  2  0
 13 14  1  0
  5 15  2  0
 15 16  1  0
 16 17  2  0
 17 18  1  0
 18 19  1  0
 19 20  1  0
 20 21  1  0
 21 22  1  0
 22 23  1  0
 23 24  2  0
 24 25  1  0
 25 26  2  0
 26 27  1  0
 27 28  2  0
 17  3  1  0
 28 23  1  0
 13  7  1  0
M  END
>  <zinc_id>  (642) 
ZINC000013532895

>  <ortholog_name>  (642) 
DRTS_PLAFK

>  <gene_name>  (642) 
DRTS_PLAFK

>  <affinity>  (642) 
6.22

>  <chembldocid>  (642) 
17636

>  <title>  (642) 
None

>  <reference.pubmed_id>  (642) 
14711307

>  <reference.doi>  (642) 
None

>  <reference.chembl_id>  (642) 
CHEMBL1148379

>  <reference.journal>  (642) 
J. Med. Chem.

>  <reference.year>  (642) 
2004

$$$$

     RDKit          3D

 29 31  0  0  0  0  0  0  0  0999 V2000
   -0.9393   -3.1765    2.7248 C   0  0  0  0  0  0  0  0  0  0  0  0
   -0.7742   -3.5707    1.2787 C   0  0  0  0  0  0  0  0  0  0  0  0
   -0.0511   -2.6070    0.5485 O   0  0  0  0  0  0  0  0  0  0  0  0
   -0.4734   -1.2969    0.4125 C   0  0  0  0  0  0  0  0  0  0  0  0
   -1.6586   -0.8486    1.0002 C   0  0  0  0  0  0  0  0  0  0  0  0
   -2.0589    0.4411    0.8571 C   0  0  0  0  0  0  0  0  0  0  0  0
   -3.3023    1.0088    1.4452 C   0  0  0  0  0  0  0  0  0  0  0  0
   -4.4168    0.8150    0.4771 C   0  0  0  0  0  0  0  0  0  0  0  0
   -5.3623   -0.1697    0.6898 C   0  0  0  0  0  0  0  0  0  0  0  0
   -6.3787   -0.3663   -0.1676 N   0  0  0  0  0  0  0  0  0  0  0  0
   -6.5273    0.3837   -1.2743 C   0  0  0  0  0  0  0  0  0  0  0  0
   -7.6189    0.1564   -2.1745 N   0  0  0  0  0  0  0  0  0  0  0  0
   -5.6151    1.3451   -1.4937 N   0  0  0  0  0  0  0  0  0  0  0  0
   -4.5734    1.5816   -0.6590 C   0  0  0  0  0  0  0  0  0  0  0  0
   -3.6194    2.6001   -0.9052 N   0  0  0  0  0  0  0  0  0  0  0  0
   -1.2572    1.3002    0.1110 C   0  0  0  0  0  0  0  0  0  0  0  0
   -0.0772    0.8672   -0.4780 C   0  0  0  0  0  0  0  0  0  0  0  0
    0.3195   -0.4450   -0.3261 C   0  0  0  0  0  0  0  0  0  0  0  0
    1.4957   -0.8991   -0.9066 O   0  0  0  0  0  0  0  0  0  0  0  0
    2.3388   -0.0721   -1.6654 C   0  0  0  0  0  0  0  0  0  0  0  0
    3.5256   -0.8926   -2.1416 C   0  0  0  0  0  0  0  0  0  0  0  0
    4.4144    0.0106   -2.9544 C   0  0  0  0  0  0  0  0  0  0  0  0
    4.8398    1.0750   -2.1338 O   0  0  0  0  0  0  0  0  0  0  0  0
    5.5631    0.7692   -0.9891 C   0  0  0  0  0  0  0  0  0  0  0  0
    5.8610   -0.5397   -0.6569 C   0  0  0  0  0  0  0  0  0  0  0  0
    6.5795   -0.8569    0.4782 C   0  0  0  0  0  0  0  0  0  0  0  0
    7.0131    0.1560    1.3048 C   0  0  0  0  0  0  0  0  0  0  0  0
    6.7355    1.4675    1.0064 C   0  0  0  0  0  0  0  0  0  0  0  0
    6.0180    1.7637   -0.1296 C   0  0  0  0  0  0  0  0  0  0  0  0
  1  2  1  0
  2  3  1  0
  3  4  1  0
  4  5  2  0
  5  6  1  0
  6  7  1  0
  7  8  1  0
  8  9  2  0
  9 10  1  0
 10 11  2  0
 11 12  1  0
 11 13  1  0
 13 14  2  0
 14 15  1  0
  6 16  2  0
 16 17  1  0
 17 18  2  0
 18 19  1  0
 19 20  1  0
 20 21  1  0
 21 22  1  0
 22 23  1  0
 23 24  1  0
 24 25  2  0
 25 26  1  0
 26 27  2  0
 27 28  1  0
 28 29  2  0
 18  4  1  0
 29 24  1  0
 14  8  1  0
M  END
>  <zinc_id>  (643) 
ZINC000013532899

>  <ortholog_name>  (643) 
DRTS_PLAFK

>  <gene_name>  (643) 
DRTS_PLAFK

>  <affinity>  (643) 
9.22

>  <chembldocid>  (643) 
17636

>  <title>  (643) 
None

>  <reference.pubmed_id>  (643) 
14711307

>  <reference.doi>  (643) 
None

>  <reference.chembl_id>  (643) 
CHEMBL1148379

>  <reference.journal>  (643) 
J. Med. Chem.

>  <reference.year>  (643) 
2004

$$$$

     RDKit          3D

 29 31  0  0  0  0  0  0  0  0999 V2000
   -0.9393   -3.1765    2.7248 C   0  0  0  0  0  0  0  0  0  0  0  0
   -0.7742   -3.5707    1.2787 C   0  0  0  0  0  0  0  0  0  0  0  0
   -0.0511   -2.6070    0.5485 O   0  0  0  0  0  0  0  0  0  0  0  0
   -0.4734   -1.2969    0.4125 C   0  0  0  0  0  0  0  0  0  0  0  0
   -1.6586   -0.8486    1.0002 C   0  0  0  0  0  0  0  0  0  0  0  0
   -2.0589    0.4411    0.8571 C   0  0  0  0  0  0  0  0  0  0  0  0
   -3.3023    1.0088    1.4452 C   0  0  0  0  0  0  0  0  0  0  0  0
   -4.4168    0.8150    0.4771 C   0  0  0  0  0  0  0  0  0  0  0  0
   -5.3623   -0.1697    0.6898 C   0  0  0  0  0  0  0  0  0  0  0  0
   -6.3787   -0.3663   -0.1676 N   0  0  0  0  0  0  0  0  0  0  0  0
   -6.5273    0.3837   -1.2743 C   0  0  0  0  0  0  0  0  0  0  0  0
   -7.6189    0.1564   -2.1745 N   0  0  0  0  0  0  0  0  0  0  0  0
   -5.6151    1.3451   -1.4937 N   0  0  0  0  0  0  0  0  0  0  0  0
   -4.5734    1.5816   -0.6590 C   0  0  0  0  0  0  0  0  0  0  0  0
   -3.6194    2.6001   -0.9052 N   0  0  0  0  0  0  0  0  0  0  0  0
   -1.2572    1.3002    0.1110 C   0  0  0  0  0  0  0  0  0  0  0  0
   -0.0772    0.8672   -0.4780 C   0  0  0  0  0  0  0  0  0  0  0  0
    0.3195   -0.4450   -0.3261 C   0  0  0  0  0  0  0  0  0  0  0  0
    1.4957   -0.8991   -0.9066 O   0  0  0  0  0  0  0  0  0  0  0  0
    2.3388   -0.0721   -1.6654 C   0  0  0  0  0  0  0  0  0  0  0  0
    3.5256   -0.8926   -2.1416 C   0  0  0  0  0  0  0  0  0  0  0  0
    4.4144    0.0106   -2.9544 C   0  0  0  0  0  0  0  0  0  0  0  0
    4.8398    1.0750   -2.1338 O   0  0  0  0  0  0  0  0  0  0  0  0
    5.5631    0.7692   -0.9891 C   0  0  0  0  0  0  0  0  0  0  0  0
    5.8610   -0.5397   -0.6569 C   0  0  0  0  0  0  0  0  0  0  0  0
    6.5795   -0.8569    0.4782 C   0  0  0  0  0  0  0  0  0  0  0  0
    7.0131    0.1560    1.3048 C   0  0  0  0  0  0  0  0  0  0  0  0
    6.7355    1.4675    1.0064 C   0  0  0  0  0  0  0  0  0  0  0  0
    6.0180    1.7637   -0.1296 C   0  0  0  0  0  0  0  0  0  0  0  0
  1  2  1  0
  2  3  1  0
  3  4  1  0
  4  5  2  0
  5  6  1  0
  6  7  1  0
  7  8  1  0
  8  9  2  0
  9 10  1  0
 10 11  2  0
 11 12  1  0
 11 13  1  0
 13 14  2  0
 14 15  1  0
  6 16  2  0
 16 17  1  0
 17 18  2  0
 18 19  1  0
 19 20  1  0
 20 21  1  0
 21 22  1  0
 22 23  1  0
 23 24  1  0
 24 25  2  0
 25 26  1  0
 26 27  2  0
 27 28  1  0
 28 29  2  0
 18  4  1  0
 29 24  1  0
 14  8  1  0
M  END
>  <zinc_id>  (644) 
ZINC000013532899

>  <ortholog_name>  (644) 
DRTS_PLAFK

>  <gene_name>  (644) 
DRTS_PLAFK

>  <affinity>  (644) 
6.78

>  <chembldocid>  (644) 
17636

>  <title>  (644) 
None

>  <reference.pubmed_id>  (644) 
14711307

>  <reference.doi>  (644) 
None

>  <reference.chembl_id>  (644) 
CHEMBL1148379

>  <reference.journal>  (644) 
J. Med. Chem.

>  <reference.year>  (644) 
2004

$$$$

     RDKit          3D

 29 31  0  0  0  0  0  0  0  0999 V2000
   -0.9393   -3.1765    2.7248 C   0  0  0  0  0  0  0  0  0  0  0  0
   -0.7742   -3.5707    1.2787 C   0  0  0  0  0  0  0  0  0  0  0  0
   -0.0511   -2.6070    0.5485 O   0  0  0  0  0  0  0  0  0  0  0  0
   -0.4734   -1.2969    0.4125 C   0  0  0  0  0  0  0  0  0  0  0  0
   -1.6586   -0.8486    1.0002 C   0  0  0  0  0  0  0  0  0  0  0  0
   -2.0589    0.4411    0.8571 C   0  0  0  0  0  0  0  0  0  0  0  0
   -3.3023    1.0088    1.4452 C   0  0  0  0  0  0  0  0  0  0  0  0
   -4.4168    0.8150    0.4771 C   0  0  0  0  0  0  0  0  0  0  0  0
   -5.3623   -0.1697    0.6898 C   0  0  0  0  0  0  0  0  0  0  0  0
   -6.3787   -0.3663   -0.1676 N   0  0  0  0  0  0  0  0  0  0  0  0
   -6.5273    0.3837   -1.2743 C   0  0  0  0  0  0  0  0  0  0  0  0
   -7.6189    0.1564   -2.1745 N   0  0  0  0  0  0  0  0  0  0  0  0
   -5.6151    1.3451   -1.4937 N   0  0  0  0  0  0  0  0  0  0  0  0
   -4.5734    1.5816   -0.6590 C   0  0  0  0  0  0  0  0  0  0  0  0
   -3.6194    2.6001   -0.9052 N   0  0  0  0  0  0  0  0  0  0  0  0
   -1.2572    1.3002    0.1110 C   0  0  0  0  0  0  0  0  0  0  0  0
   -0.0772    0.8672   -0.4780 C   0  0  0  0  0  0  0  0  0  0  0  0
    0.3195   -0.4450   -0.3261 C   0  0  0  0  0  0  0  0  0  0  0  0
    1.4957   -0.8991   -0.9066 O   0  0  0  0  0  0  0  0  0  0  0  0
    2.3388   -0.0721   -1.6654 C   0  0  0  0  0  0  0  0  0  0  0  0
    3.5256   -0.8926   -2.1416 C   0  0  0  0  0  0  0  0  0  0  0  0
    4.4144    0.0106   -2.9544 C   0  0  0  0  0  0  0  0  0  0  0  0
    4.8398    1.0750   -2.1338 O   0  0  0  0  0  0  0  0  0  0  0  0
    5.5631    0.7692   -0.9891 C   0  0  0  0  0  0  0  0  0  0  0  0
    5.8610   -0.5397   -0.6569 C   0  0  0  0  0  0  0  0  0  0  0  0
    6.5795   -0.8569    0.4782 C   0  0  0  0  0  0  0  0  0  0  0  0
    7.0131    0.1560    1.3048 C   0  0  0  0  0  0  0  0  0  0  0  0
    6.7355    1.4675    1.0064 C   0  0  0  0  0  0  0  0  0  0  0  0
    6.0180    1.7637   -0.1296 C   0  0  0  0  0  0  0  0  0  0  0  0
  1  2  1  0
  2  3  1  0
  3  4  1  0
  4  5  2  0
  5  6  1  0
  6  7  1  0
  7  8  1  0
  8  9  2  0
  9 10  1  0
 10 11  2  0
 11 12  1  0
 11 13  1  0
 13 14  2  0
 14 15  1  0
  6 16  2  0
 16 17  1  0
 17 18  2  0
 18 19  1  0
 19 20  1  0
 20 21  1  0
 21 22  1  0
 22 23  1  0
 23 24  1  0
 24 25  2  0
 25 26  1  0
 26 27  2  0
 27 28  1  0
 28 29  2  0
 18  4  1  0
 29 24  1  0
 14  8  1  0
M  END
>  <zinc_id>  (645) 
ZINC000013532899

>  <ortholog_name>  (645) 
DRTS_PLAFK

>  <gene_name>  (645) 
DRTS_PLAFK

>  <affinity>  (645) 
7.32

>  <chembldocid>  (645) 
17636

>  <title>  (645) 
None

>  <reference.pubmed_id>  (645) 
14711307

>  <reference.doi>  (645) 
None

>  <reference.chembl_id>  (645) 
CHEMBL1148379

>  <reference.journal>  (645) 
J. Med. Chem.

>  <reference.year>  (645) 
2004

$$$$

     RDKit          3D

 29 31  0  0  0  0  0  0  0  0999 V2000
   -0.9393   -3.1765    2.7248 C   0  0  0  0  0  0  0  0  0  0  0  0
   -0.7742   -3.5707    1.2787 C   0  0  0  0  0  0  0  0  0  0  0  0
   -0.0511   -2.6070    0.5485 O   0  0  0  0  0  0  0  0  0  0  0  0
   -0.4734   -1.2969    0.4125 C   0  0  0  0  0  0  0  0  0  0  0  0
   -1.6586   -0.8486    1.0002 C   0  0  0  0  0  0  0  0  0  0  0  0
   -2.0589    0.4411    0.8571 C   0  0  0  0  0  0  0  0  0  0  0  0
   -3.3023    1.0088    1.4452 C   0  0  0  0  0  0  0  0  0  0  0  0
   -4.4168    0.8150    0.4771 C   0  0  0  0  0  0  0  0  0  0  0  0
   -5.3623   -0.1697    0.6898 C   0  0  0  0  0  0  0  0  0  0  0  0
   -6.3787   -0.3663   -0.1676 N   0  0  0  0  0  0  0  0  0  0  0  0
   -6.5273    0.3837   -1.2743 C   0  0  0  0  0  0  0  0  0  0  0  0
   -7.6189    0.1564   -2.1745 N   0  0  0  0  0  0  0  0  0  0  0  0
   -5.6151    1.3451   -1.4937 N   0  0  0  0  0  0  0  0  0  0  0  0
   -4.5734    1.5816   -0.6590 C   0  0  0  0  0  0  0  0  0  0  0  0
   -3.6194    2.6001   -0.9052 N   0  0  0  0  0  0  0  0  0  0  0  0
   -1.2572    1.3002    0.1110 C   0  0  0  0  0  0  0  0  0  0  0  0
   -0.0772    0.8672   -0.4780 C   0  0  0  0  0  0  0  0  0  0  0  0
    0.3195   -0.4450   -0.3261 C   0  0  0  0  0  0  0  0  0  0  0  0
    1.4957   -0.8991   -0.9066 O   0  0  0  0  0  0  0  0  0  0  0  0
    2.3388   -0.0721   -1.6654 C   0  0  0  0  0  0  0  0  0  0  0  0
    3.5256   -0.8926   -2.1416 C   0  0  0  0  0  0  0  0  0  0  0  0
    4.4144    0.0106   -2.9544 C   0  0  0  0  0  0  0  0  0  0  0  0
    4.8398    1.0750   -2.1338 O   0  0  0  0  0  0  0  0  0  0  0  0
    5.5631    0.7692   -0.9891 C   0  0  0  0  0  0  0  0  0  0  0  0
    5.8610   -0.5397   -0.6569 C   0  0  0  0  0  0  0  0  0  0  0  0
    6.5795   -0.8569    0.4782 C   0  0  0  0  0  0  0  0  0  0  0  0
    7.0131    0.1560    1.3048 C   0  0  0  0  0  0  0  0  0  0  0  0
    6.7355    1.4675    1.0064 C   0  0  0  0  0  0  0  0  0  0  0  0
    6.0180    1.7637   -0.1296 C   0  0  0  0  0  0  0  0  0  0  0  0
  1  2  1  0
  2  3  1  0
  3  4  1  0
  4  5  2  0
  5  6  1  0
  6  7  1  0
  7  8  1  0
  8  9  2  0
  9 10  1  0
 10 11  2  0
 11 12  1  0
 11 13  1  0
 13 14  2  0
 14 15  1  0
  6 16  2  0
 16 17  1  0
 17 18  2  0
 18 19  1  0
 19 20  1  0
 20 21  1  0
 21 22  1  0
 22 23  1  0
 23 24  1  0
 24 25  2  0
 25 26  1  0
 26 27  2  0
 27 28  1  0
 28 29  2  0
 18  4  1  0
 29 24  1  0
 14  8  1  0
M  END
>  <zinc_id>  (646) 
ZINC000013532899

>  <ortholog_name>  (646) 
DRTS_PLAFK

>  <gene_name>  (646) 
DRTS_PLAFK

>  <affinity>  (646) 
6.11

>  <chembldocid>  (646) 
17636

>  <title>  (646) 
None

>  <reference.pubmed_id>  (646) 
14711307

>  <reference.doi>  (646) 
None

>  <reference.chembl_id>  (646) 
CHEMBL1148379

>  <reference.journal>  (646) 
J. Med. Chem.

>  <reference.year>  (646) 
2004

$$$$

     RDKit          3D

 30 32  0  0  0  0  0  0  0  0999 V2000
   -9.3501    0.9232    0.5040 N   0  0  0  0  0  0  0  0  0  0  0  0
   -8.1155    0.3837    0.0218 C   0  0  0  0  0  0  0  0  0  0  0  0
   -7.8666   -0.9077    0.3516 N   0  0  0  0  0  0  0  0  0  0  0  0
   -6.7516   -1.4997   -0.0473 C   0  0  0  0  0  0  0  0  0  0  0  0
   -5.8456   -0.7745   -0.8069 C   0  0  0  0  0  0  0  0  0  0  0  0
   -4.5737   -1.3288   -1.3062 C   0  0  0  0  0  0  0  0  0  0  0  0
   -3.4209   -0.8330   -0.5038 C   0  0  0  0  0  0  0  0  0  0  0  0
   -2.9342   -1.5141    0.5945 C   0  0  0  0  0  0  0  0  0  0  0  0
   -1.8661   -1.0446    1.3287 C   0  0  0  0  0  0  0  0  0  0  0  0
   -1.2301    0.1340    0.9990 C   0  0  0  0  0  0  0  0  0  0  0  0
   -0.1553    0.5805    1.7598 O   0  0  0  0  0  0  0  0  0  0  0  0
    0.4892    1.8102    1.3928 C   0  0  0  0  0  0  0  0  0  0  0  0
    0.9949    1.5791   -0.0263 C   0  0  0  0  0  0  0  0  0  0  0  0
    1.9528    0.4106    0.0090 C   0  0  0  0  0  0  0  0  0  0  0  0
    3.0335    0.6715    0.8485 O   0  0  0  0  0  0  0  0  0  0  0  0
    3.6722    1.8099    0.3237 C   0  0  0  0  0  0  0  0  0  0  0  0
    4.1311    1.5269   -1.0805 C   0  0  0  0  0  0  0  0  0  0  0  0
    5.0987    0.3694   -1.1087 C   0  0  0  0  0  0  0  0  0  0  0  0
    6.2230    0.6815   -0.3156 O   0  0  0  0  0  0  0  0  0  0  0  0
    7.2354   -0.2323   -0.1942 C   0  0  0  0  0  0  0  0  0  0  0  0
    7.1484   -1.4386   -0.8427 C   0  0  0  0  0  0  0  0  0  0  0  0
    8.1498   -2.3544   -0.7275 C   0  0  0  0  0  0  0  0  0  0  0  0
    9.2921   -2.1498    0.0242 C   0  0  0  0  0  0  0  0  0  0  0  0
    9.3830   -0.9357    0.6790 C   0  0  0  0  0  0  0  0  0  0  0  0
    8.3783    0.0065    0.5751 C   0  0  0  0  0  0  0  0  0  0  0  0
   -1.7074    0.8240   -0.0962 C   0  0  0  0  0  0  0  0  0  0  0  0
   -2.7751    0.3562   -0.8315 C   0  0  0  0  0  0  0  0  0  0  0  0
   -6.1292    0.5438   -1.1274 C   0  0  0  0  0  0  0  0  0  0  0  0
   -5.1935    1.2936   -1.9136 N   0  0  0  0  0  0  0  0  0  0  0  0
   -7.2672    1.1086   -0.7062 N   0  0  0  0  0  0  0  0  0  0  0  0
  1  2  1  0
  2  3  2  0
  3  4  1  0
  4  5  2  0
  5  6  1  0
  6  7  1  0
  7  8  2  0
  8  9  1  0
  9 10  2  0
 10 11  1  0
 11 12  1  0
 12 13  1  0
 13 14  1  0
 14 15  1  0
 15 16  1  0
 16 17  1  0
 17 18  1  0
 18 19  1  0
 19 20  1  0
 20 21  2  0
 21 22  1  0
 22 23  2  0
 23 24  1  0
 24 25  2  0
 10 26  1  0
 26 27  2  0
  5 28  1  0
 28 29  1  0
 28 30  2  0
 30  2  1  0
 27  7  1  0
 25 20  1  0
M  END
>  <zinc_id>  (647) 
ZINC000013532904

>  <ortholog_name>  (647) 
DRTS_PLAFK

>  <gene_name>  (647) 
DRTS_PLAFK

>  <affinity>  (647) 
6.97

>  <chembldocid>  (647) 
17636

>  <title>  (647) 
None

>  <reference.pubmed_id>  (647) 
14711307

>  <reference.doi>  (647) 
None

>  <reference.chembl_id>  (647) 
CHEMBL1148379

>  <reference.journal>  (647) 
J. Med. Chem.

>  <reference.year>  (647) 
2004

$$$$

     RDKit          3D

 30 32  0  0  0  0  0  0  0  0999 V2000
   -9.3501    0.9232    0.5040 N   0  0  0  0  0  0  0  0  0  0  0  0
   -8.1155    0.3837    0.0218 C   0  0  0  0  0  0  0  0  0  0  0  0
   -7.8666   -0.9077    0.3516 N   0  0  0  0  0  0  0  0  0  0  0  0
   -6.7516   -1.4997   -0.0473 C   0  0  0  0  0  0  0  0  0  0  0  0
   -5.8456   -0.7745   -0.8069 C   0  0  0  0  0  0  0  0  0  0  0  0
   -4.5737   -1.3288   -1.3062 C   0  0  0  0  0  0  0  0  0  0  0  0
   -3.4209   -0.8330   -0.5038 C   0  0  0  0  0  0  0  0  0  0  0  0
   -2.9342   -1.5141    0.5945 C   0  0  0  0  0  0  0  0  0  0  0  0
   -1.8661   -1.0446    1.3287 C   0  0  0  0  0  0  0  0  0  0  0  0
   -1.2301    0.1340    0.9990 C   0  0  0  0  0  0  0  0  0  0  0  0
   -0.1553    0.5805    1.7598 O   0  0  0  0  0  0  0  0  0  0  0  0
    0.4892    1.8102    1.3928 C   0  0  0  0  0  0  0  0  0  0  0  0
    0.9949    1.5791   -0.0263 C   0  0  0  0  0  0  0  0  0  0  0  0
    1.9528    0.4106    0.0090 C   0  0  0  0  0  0  0  0  0  0  0  0
    3.0335    0.6715    0.8485 O   0  0  0  0  0  0  0  0  0  0  0  0
    3.6722    1.8099    0.3237 C   0  0  0  0  0  0  0  0  0  0  0  0
    4.1311    1.5269   -1.0805 C   0  0  0  0  0  0  0  0  0  0  0  0
    5.0987    0.3694   -1.1087 C   0  0  0  0  0  0  0  0  0  0  0  0
    6.2230    0.6815   -0.3156 O   0  0  0  0  0  0  0  0  0  0  0  0
    7.2354   -0.2323   -0.1942 C   0  0  0  0  0  0  0  0  0  0  0  0
    7.1484   -1.4386   -0.8427 C   0  0  0  0  0  0  0  0  0  0  0  0
    8.1498   -2.3544   -0.7275 C   0  0  0  0  0  0  0  0  0  0  0  0
    9.2921   -2.1498    0.0242 C   0  0  0  0  0  0  0  0  0  0  0  0
    9.3830   -0.9357    0.6790 C   0  0  0  0  0  0  0  0  0  0  0  0
    8.3783    0.0065    0.5751 C   0  0  0  0  0  0  0  0  0  0  0  0
   -1.7074    0.8240   -0.0962 C   0  0  0  0  0  0  0  0  0  0  0  0
   -2.7751    0.3562   -0.8315 C   0  0  0  0  0  0  0  0  0  0  0  0
   -6.1292    0.5438   -1.1274 C   0  0  0  0  0  0  0  0  0  0  0  0
   -5.1935    1.2936   -1.9136 N   0  0  0  0  0  0  0  0  0  0  0  0
   -7.2672    1.1086   -0.7062 N   0  0  0  0  0  0  0  0  0  0  0  0
  1  2  1  0
  2  3  2  0
  3  4  1  0
  4  5  2  0
  5  6  1  0
  6  7  1  0
  7  8  2  0
  8  9  1  0
  9 10  2  0
 10 11  1  0
 11 12  1  0
 12 13  1  0
 13 14  1  0
 14 15  1  0
 15 16  1  0
 16 17  1  0
 17 18  1  0
 18 19  1  0
 19 20  1  0
 20 21  2  0
 21 22  1  0
 22 23  2  0
 23 24  1  0
 24 25  2  0
 10 26  1  0
 26 27  2  0
  5 28  1  0
 28 29  1  0
 28 30  2  0
 30  2  1  0
 27  7  1  0
 25 20  1  0
M  END
>  <zinc_id>  (648) 
ZINC000013532904

>  <ortholog_name>  (648) 
DRTS_PLAFK

>  <gene_name>  (648) 
DRTS_PLAFK

>  <affinity>  (648) 
5.80

>  <chembldocid>  (648) 
17636

>  <title>  (648) 
None

>  <reference.pubmed_id>  (648) 
14711307

>  <reference.doi>  (648) 
None

>  <reference.chembl_id>  (648) 
CHEMBL1148379

>  <reference.journal>  (648) 
J. Med. Chem.

>  <reference.year>  (648) 
2004

$$$$

     RDKit          3D

 30 32  0  0  0  0  0  0  0  0999 V2000
   -9.3501    0.9232    0.5040 N   0  0  0  0  0  0  0  0  0  0  0  0
   -8.1155    0.3837    0.0218 C   0  0  0  0  0  0  0  0  0  0  0  0
   -7.8666   -0.9077    0.3516 N   0  0  0  0  0  0  0  0  0  0  0  0
   -6.7516   -1.4997   -0.0473 C   0  0  0  0  0  0  0  0  0  0  0  0
   -5.8456   -0.7745   -0.8069 C   0  0  0  0  0  0  0  0  0  0  0  0
   -4.5737   -1.3288   -1.3062 C   0  0  0  0  0  0  0  0  0  0  0  0
   -3.4209   -0.8330   -0.5038 C   0  0  0  0  0  0  0  0  0  0  0  0
   -2.9342   -1.5141    0.5945 C   0  0  0  0  0  0  0  0  0  0  0  0
   -1.8661   -1.0446    1.3287 C   0  0  0  0  0  0  0  0  0  0  0  0
   -1.2301    0.1340    0.9990 C   0  0  0  0  0  0  0  0  0  0  0  0
   -0.1553    0.5805    1.7598 O   0  0  0  0  0  0  0  0  0  0  0  0
    0.4892    1.8102    1.3928 C   0  0  0  0  0  0  0  0  0  0  0  0
    0.9949    1.5791   -0.0263 C   0  0  0  0  0  0  0  0  0  0  0  0
    1.9528    0.4106    0.0090 C   0  0  0  0  0  0  0  0  0  0  0  0
    3.0335    0.6715    0.8485 O   0  0  0  0  0  0  0  0  0  0  0  0
    3.6722    1.8099    0.3237 C   0  0  0  0  0  0  0  0  0  0  0  0
    4.1311    1.5269   -1.0805 C   0  0  0  0  0  0  0  0  0  0  0  0
    5.0987    0.3694   -1.1087 C   0  0  0  0  0  0  0  0  0  0  0  0
    6.2230    0.6815   -0.3156 O   0  0  0  0  0  0  0  0  0  0  0  0
    7.2354   -0.2323   -0.1942 C   0  0  0  0  0  0  0  0  0  0  0  0
    7.1484   -1.4386   -0.8427 C   0  0  0  0  0  0  0  0  0  0  0  0
    8.1498   -2.3544   -0.7275 C   0  0  0  0  0  0  0  0  0  0  0  0
    9.2921   -2.1498    0.0242 C   0  0  0  0  0  0  0  0  0  0  0  0
    9.3830   -0.9357    0.6790 C   0  0  0  0  0  0  0  0  0  0  0  0
    8.3783    0.0065    0.5751 C   0  0  0  0  0  0  0  0  0  0  0  0
   -1.7074    0.8240   -0.0962 C   0  0  0  0  0  0  0  0  0  0  0  0
   -2.7751    0.3562   -0.8315 C   0  0  0  0  0  0  0  0  0  0  0  0
   -6.1292    0.5438   -1.1274 C   0  0  0  0  0  0  0  0  0  0  0  0
   -5.1935    1.2936   -1.9136 N   0  0  0  0  0  0  0  0  0  0  0  0
   -7.2672    1.1086   -0.7062 N   0  0  0  0  0  0  0  0  0  0  0  0
  1  2  1  0
  2  3  2  0
  3  4  1  0
  4  5  2  0
  5  6  1  0
  6  7  1  0
  7  8  2  0
  8  9  1  0
  9 10  2  0
 10 11  1  0
 11 12  1  0
 12 13  1  0
 13 14  1  0
 14 15  1  0
 15 16  1  0
 16 17  1  0
 17 18  1  0
 18 19  1  0
 19 20  1  0
 20 21  2  0
 21 22  1  0
 22 23  2  0
 23 24  1  0
 24 25  2  0
 10 26  1  0
 26 27  2  0
  5 28  1  0
 28 29  1  0
 28 30  2  0
 30  2  1  0
 27  7  1  0
 25 20  1  0
M  END
>  <zinc_id>  (649) 
ZINC000013532904

>  <ortholog_name>  (649) 
DRTS_PLAFK

>  <gene_name>  (649) 
DRTS_PLAFK

>  <affinity>  (649) 
6.58

>  <chembldocid>  (649) 
17636

>  <title>  (649) 
None

>  <reference.pubmed_id>  (649) 
14711307

>  <reference.doi>  (649) 
None

>  <reference.chembl_id>  (649) 
CHEMBL1148379

>  <reference.journal>  (649) 
J. Med. Chem.

>  <reference.year>  (649) 
2004

$$$$

     RDKit          3D

 30 32  0  0  0  0  0  0  0  0999 V2000
   -9.3501    0.9232    0.5040 N   0  0  0  0  0  0  0  0  0  0  0  0
   -8.1155    0.3837    0.0218 C   0  0  0  0  0  0  0  0  0  0  0  0
   -7.8666   -0.9077    0.3516 N   0  0  0  0  0  0  0  0  0  0  0  0
   -6.7516   -1.4997   -0.0473 C   0  0  0  0  0  0  0  0  0  0  0  0
   -5.8456   -0.7745   -0.8069 C   0  0  0  0  0  0  0  0  0  0  0  0
   -4.5737   -1.3288   -1.3062 C   0  0  0  0  0  0  0  0  0  0  0  0
   -3.4209   -0.8330   -0.5038 C   0  0  0  0  0  0  0  0  0  0  0  0
   -2.9342   -1.5141    0.5945 C   0  0  0  0  0  0  0  0  0  0  0  0
   -1.8661   -1.0446    1.3287 C   0  0  0  0  0  0  0  0  0  0  0  0
   -1.2301    0.1340    0.9990 C   0  0  0  0  0  0  0  0  0  0  0  0
   -0.1553    0.5805    1.7598 O   0  0  0  0  0  0  0  0  0  0  0  0
    0.4892    1.8102    1.3928 C   0  0  0  0  0  0  0  0  0  0  0  0
    0.9949    1.5791   -0.0263 C   0  0  0  0  0  0  0  0  0  0  0  0
    1.9528    0.4106    0.0090 C   0  0  0  0  0  0  0  0  0  0  0  0
    3.0335    0.6715    0.8485 O   0  0  0  0  0  0  0  0  0  0  0  0
    3.6722    1.8099    0.3237 C   0  0  0  0  0  0  0  0  0  0  0  0
    4.1311    1.5269   -1.0805 C   0  0  0  0  0  0  0  0  0  0  0  0
    5.0987    0.3694   -1.1087 C   0  0  0  0  0  0  0  0  0  0  0  0
    6.2230    0.6815   -0.3156 O   0  0  0  0  0  0  0  0  0  0  0  0
    7.2354   -0.2323   -0.1942 C   0  0  0  0  0  0  0  0  0  0  0  0
    7.1484   -1.4386   -0.8427 C   0  0  0  0  0  0  0  0  0  0  0  0
    8.1498   -2.3544   -0.7275 C   0  0  0  0  0  0  0  0  0  0  0  0
    9.2921   -2.1498    0.0242 C   0  0  0  0  0  0  0  0  0  0  0  0
    9.3830   -0.9357    0.6790 C   0  0  0  0  0  0  0  0  0  0  0  0
    8.3783    0.0065    0.5751 C   0  0  0  0  0  0  0  0  0  0  0  0
   -1.7074    0.8240   -0.0962 C   0  0  0  0  0  0  0  0  0  0  0  0
   -2.7751    0.3562   -0.8315 C   0  0  0  0  0  0  0  0  0  0  0  0
   -6.1292    0.5438   -1.1274 C   0  0  0  0  0  0  0  0  0  0  0  0
   -5.1935    1.2936   -1.9136 N   0  0  0  0  0  0  0  0  0  0  0  0
   -7.2672    1.1086   -0.7062 N   0  0  0  0  0  0  0  0  0  0  0  0
  1  2  1  0
  2  3  2  0
  3  4  1  0
  4  5  2  0
  5  6  1  0
  6  7  1  0
  7  8  2  0
  8  9  1  0
  9 10  2  0
 10 11  1  0
 11 12  1  0
 12 13  1  0
 13 14  1  0
 14 15  1  0
 15 16  1  0
 16 17  1  0
 17 18  1  0
 18 19  1  0
 19 20  1  0
 20 21  2  0
 21 22  1  0
 22 23  2  0
 23 24  1  0
 24 25  2  0
 10 26  1  0
 26 27  2  0
  5 28  1  0
 28 29  1  0
 28 30  2  0
 30  2  1  0
 27  7  1  0
 25 20  1  0
M  END
>  <zinc_id>  (650) 
ZINC000013532904

>  <ortholog_name>  (650) 
DRTS_PLAFK

>  <gene_name>  (650) 
DRTS_PLAFK

>  <affinity>  (650) 
8.15

>  <chembldocid>  (650) 
17636

>  <title>  (650) 
None

>  <reference.pubmed_id>  (650) 
14711307

>  <reference.doi>  (650) 
None

>  <reference.chembl_id>  (650) 
CHEMBL1148379

>  <reference.journal>  (650) 
J. Med. Chem.

>  <reference.year>  (650) 
2004

$$$$

     RDKit          3D

 32 34  0  0  0  0  0  0  0  0999 V2000
   -1.9529    3.0981    0.5576 C   0  0  0  0  0  0  0  0  0  0  0  0
   -0.8687    2.2182    0.7944 O   0  0  0  0  0  0  0  0  0  0  0  0
   -1.0959    0.9145    1.2101 C   0  0  0  0  0  0  0  0  0  0  0  0
   -2.4118    0.4712    1.3950 C   0  0  0  0  0  0  0  0  0  0  0  0
   -2.6218   -0.8312    1.8095 C   0  0  0  0  0  0  0  0  0  0  0  0
   -4.0026   -1.3230    2.0106 C   0  0  0  0  0  0  0  0  0  0  0  0
   -4.3919   -1.1264    3.4292 C   0  0  0  0  0  0  0  0  0  0  0  0
   -5.2432   -0.0868    3.8199 C   0  0  0  0  0  0  0  0  0  0  0  0
   -5.6090    0.1111    5.0929 N   0  0  0  0  0  0  0  0  0  0  0  0
   -5.1373   -0.7249    6.0325 C   0  0  0  0  0  0  0  0  0  0  0  0
   -5.4867   -0.5730    7.4075 N   0  0  0  0  0  0  0  0  0  0  0  0
   -4.3239   -1.7244    5.6870 N   0  0  0  0  0  0  0  0  0  0  0  0
   -3.9308   -1.9615    4.4273 C   0  0  0  0  0  0  0  0  0  0  0  0
   -3.0654   -3.0240    4.0510 N   0  0  0  0  0  0  0  0  0  0  0  0
   -1.5725   -1.6893    2.0410 C   0  0  0  0  0  0  0  0  0  0  0  0
   -0.2657   -1.2167    1.8474 C   0  0  0  0  0  0  0  0  0  0  0  0
   -0.0282    0.0716    1.4361 C   0  0  0  0  0  0  0  0  0  0  0  0
    1.2400    0.5527    1.2408 O   0  0  0  0  0  0  0  0  0  0  0  0
    2.4578   -0.0666    1.3977 C   0  0  0  0  0  0  0  0  0  0  0  0
    2.7334   -1.2806    0.5964 C   0  0  0  0  0  0  0  0  0  0  0  0
    2.6775   -1.1444   -0.8784 C   0  0  0  0  0  0  0  0  0  0  0  0
    3.3377   -0.4076   -1.5948 O   0  0  0  0  0  0  0  0  0  0  0  0
    4.0050    0.3360   -2.3179 C   0  0  0  0  0  0  0  0  0  0  0  0
    4.9002   -0.3022   -3.3358 C   0  0  0  0  0  0  0  0  0  0  0  0
    4.0545   -1.1499   -4.2528 C   0  0  0  0  0  0  0  0  0  0  0  0
    3.0933   -0.3483   -4.8928 O   0  0  0  0  0  0  0  0  0  0  0  0
    3.4951    0.7136   -5.7066 C   0  0  0  0  0  0  0  0  0  0  0  0
    2.5805    1.5104   -6.3439 C   0  0  0  0  0  0  0  0  0  0  0  0
    2.9900    2.5381   -7.1310 C   0  0  0  0  0  0  0  0  0  0  0  0
    4.3307    2.7893   -7.2960 C   0  0  0  0  0  0  0  0  0  0  0  0
    5.2740    2.0078   -6.6699 C   0  0  0  0  0  0  0  0  0  0  0  0
    4.8386    0.9552   -5.8640 C   0  0  0  0  0  0  0  0  0  0  0  0
  1  2  1  0
  2  3  1  0
  3  4  2  0
  4  5  1  0
  5  6  1  0
  6  7  1  0
  7  8  2  0
  8  9  1  0
  9 10  2  0
 10 11  1  0
 10 12  1  0
 12 13  2  0
 13 14  1  0
  5 15  2  0
 15 16  1  0
 16 17  2  0
 17 18  1  0
 18 19  1  0
 19 20  1  0
 20 21  1  0
 21 22  1  0
 22 23  1  0
 23 24  1  0
 24 25  1  0
 25 26  1  0
 26 27  1  0
 27 28  2  0
 28 29  1  0
 29 30  2  0
 30 31  1  0
 31 32  2  0
 17  3  1  0
 32 27  1  0
 13  7  1  0
M  END
>  <zinc_id>  (651) 
ZINC000013532909

>  <ortholog_name>  (651) 
DRTS_PLAFK

>  <gene_name>  (651) 
DRTS_PLAFK

>  <affinity>  (651) 
8.74

>  <chembldocid>  (651) 
17636

>  <title>  (651) 
None

>  <reference.pubmed_id>  (651) 
14711307

>  <reference.doi>  (651) 
None

>  <reference.chembl_id>  (651) 
CHEMBL1148379

>  <reference.journal>  (651) 
J. Med. Chem.

>  <reference.year>  (651) 
2004

$$$$

     RDKit          3D

 32 34  0  0  0  0  0  0  0  0999 V2000
   -1.9529    3.0981    0.5576 C   0  0  0  0  0  0  0  0  0  0  0  0
   -0.8687    2.2182    0.7944 O   0  0  0  0  0  0  0  0  0  0  0  0
   -1.0959    0.9145    1.2101 C   0  0  0  0  0  0  0  0  0  0  0  0
   -2.4118    0.4712    1.3950 C   0  0  0  0  0  0  0  0  0  0  0  0
   -2.6218   -0.8312    1.8095 C   0  0  0  0  0  0  0  0  0  0  0  0
   -4.0026   -1.3230    2.0106 C   0  0  0  0  0  0  0  0  0  0  0  0
   -4.3919   -1.1264    3.4292 C   0  0  0  0  0  0  0  0  0  0  0  0
   -5.2432   -0.0868    3.8199 C   0  0  0  0  0  0  0  0  0  0  0  0
   -5.6090    0.1111    5.0929 N   0  0  0  0  0  0  0  0  0  0  0  0
   -5.1373   -0.7249    6.0325 C   0  0  0  0  0  0  0  0  0  0  0  0
   -5.4867   -0.5730    7.4075 N   0  0  0  0  0  0  0  0  0  0  0  0
   -4.3239   -1.7244    5.6870 N   0  0  0  0  0  0  0  0  0  0  0  0
   -3.9308   -1.9615    4.4273 C   0  0  0  0  0  0  0  0  0  0  0  0
   -3.0654   -3.0240    4.0510 N   0  0  0  0  0  0  0  0  0  0  0  0
   -1.5725   -1.6893    2.0410 C   0  0  0  0  0  0  0  0  0  0  0  0
   -0.2657   -1.2167    1.8474 C   0  0  0  0  0  0  0  0  0  0  0  0
   -0.0282    0.0716    1.4361 C   0  0  0  0  0  0  0  0  0  0  0  0
    1.2400    0.5527    1.2408 O   0  0  0  0  0  0  0  0  0  0  0  0
    2.4578   -0.0666    1.3977 C   0  0  0  0  0  0  0  0  0  0  0  0
    2.7334   -1.2806    0.5964 C   0  0  0  0  0  0  0  0  0  0  0  0
    2.6775   -1.1444   -0.8784 C   0  0  0  0  0  0  0  0  0  0  0  0
    3.3377   -0.4076   -1.5948 O   0  0  0  0  0  0  0  0  0  0  0  0
    4.0050    0.3360   -2.3179 C   0  0  0  0  0  0  0  0  0  0  0  0
    4.9002   -0.3022   -3.3358 C   0  0  0  0  0  0  0  0  0  0  0  0
    4.0545   -1.1499   -4.2528 C   0  0  0  0  0  0  0  0  0  0  0  0
    3.0933   -0.3483   -4.8928 O   0  0  0  0  0  0  0  0  0  0  0  0
    3.4951    0.7136   -5.7066 C   0  0  0  0  0  0  0  0  0  0  0  0
    2.5805    1.5104   -6.3439 C   0  0  0  0  0  0  0  0  0  0  0  0
    2.9900    2.5381   -7.1310 C   0  0  0  0  0  0  0  0  0  0  0  0
    4.3307    2.7893   -7.2960 C   0  0  0  0  0  0  0  0  0  0  0  0
    5.2740    2.0078   -6.6699 C   0  0  0  0  0  0  0  0  0  0  0  0
    4.8386    0.9552   -5.8640 C   0  0  0  0  0  0  0  0  0  0  0  0
  1  2  1  0
  2  3  1  0
  3  4  2  0
  4  5  1  0
  5  6  1  0
  6  7  1  0
  7  8  2  0
  8  9  1  0
  9 10  2  0
 10 11  1  0
 10 12  1  0
 12 13  2  0
 13 14  1  0
  5 15  2  0
 15 16  1  0
 16 17  2  0
 17 18  1  0
 18 19  1  0
 19 20  1  0
 20 21  1  0
 21 22  1  0
 22 23  1  0
 23 24  1  0
 24 25  1  0
 25 26  1  0
 26 27  1  0
 27 28  2  0
 28 29  1  0
 29 30  2  0
 30 31  1  0
 31 32  2  0
 17  3  1  0
 32 27  1  0
 13  7  1  0
M  END
>  <zinc_id>  (652) 
ZINC000013532909

>  <ortholog_name>  (652) 
DRTS_PLAFK

>  <gene_name>  (652) 
DRTS_PLAFK

>  <affinity>  (652) 
6.81

>  <chembldocid>  (652) 
17636

>  <title>  (652) 
None

>  <reference.pubmed_id>  (652) 
14711307

>  <reference.doi>  (652) 
None

>  <reference.chembl_id>  (652) 
CHEMBL1148379

>  <reference.journal>  (652) 
J. Med. Chem.

>  <reference.year>  (652) 
2004

$$$$

     RDKit          3D

 32 34  0  0  0  0  0  0  0  0999 V2000
   -1.9529    3.0981    0.5576 C   0  0  0  0  0  0  0  0  0  0  0  0
   -0.8687    2.2182    0.7944 O   0  0  0  0  0  0  0  0  0  0  0  0
   -1.0959    0.9145    1.2101 C   0  0  0  0  0  0  0  0  0  0  0  0
   -2.4118    0.4712    1.3950 C   0  0  0  0  0  0  0  0  0  0  0  0
   -2.6218   -0.8312    1.8095 C   0  0  0  0  0  0  0  0  0  0  0  0
   -4.0026   -1.3230    2.0106 C   0  0  0  0  0  0  0  0  0  0  0  0
   -4.3919   -1.1264    3.4292 C   0  0  0  0  0  0  0  0  0  0  0  0
   -5.2432   -0.0868    3.8199 C   0  0  0  0  0  0  0  0  0  0  0  0
   -5.6090    0.1111    5.0929 N   0  0  0  0  0  0  0  0  0  0  0  0
   -5.1373   -0.7249    6.0325 C   0  0  0  0  0  0  0  0  0  0  0  0
   -5.4867   -0.5730    7.4075 N   0  0  0  0  0  0  0  0  0  0  0  0
   -4.3239   -1.7244    5.6870 N   0  0  0  0  0  0  0  0  0  0  0  0
   -3.9308   -1.9615    4.4273 C   0  0  0  0  0  0  0  0  0  0  0  0
   -3.0654   -3.0240    4.0510 N   0  0  0  0  0  0  0  0  0  0  0  0
   -1.5725   -1.6893    2.0410 C   0  0  0  0  0  0  0  0  0  0  0  0
   -0.2657   -1.2167    1.8474 C   0  0  0  0  0  0  0  0  0  0  0  0
   -0.0282    0.0716    1.4361 C   0  0  0  0  0  0  0  0  0  0  0  0
    1.2400    0.5527    1.2408 O   0  0  0  0  0  0  0  0  0  0  0  0
    2.4578   -0.0666    1.3977 C   0  0  0  0  0  0  0  0  0  0  0  0
    2.7334   -1.2806    0.5964 C   0  0  0  0  0  0  0  0  0  0  0  0
    2.6775   -1.1444   -0.8784 C   0  0  0  0  0  0  0  0  0  0  0  0
    3.3377   -0.4076   -1.5948 O   0  0  0  0  0  0  0  0  0  0  0  0
    4.0050    0.3360   -2.3179 C   0  0  0  0  0  0  0  0  0  0  0  0
    4.9002   -0.3022   -3.3358 C   0  0  0  0  0  0  0  0  0  0  0  0
    4.0545   -1.1499   -4.2528 C   0  0  0  0  0  0  0  0  0  0  0  0
    3.0933   -0.3483   -4.8928 O   0  0  0  0  0  0  0  0  0  0  0  0
    3.4951    0.7136   -5.7066 C   0  0  0  0  0  0  0  0  0  0  0  0
    2.5805    1.5104   -6.3439 C   0  0  0  0  0  0  0  0  0  0  0  0
    2.9900    2.5381   -7.1310 C   0  0  0  0  0  0  0  0  0  0  0  0
    4.3307    2.7893   -7.2960 C   0  0  0  0  0  0  0  0  0  0  0  0
    5.2740    2.0078   -6.6699 C   0  0  0  0  0  0  0  0  0  0  0  0
    4.8386    0.9552   -5.8640 C   0  0  0  0  0  0  0  0  0  0  0  0
  1  2  1  0
  2  3  1  0
  3  4  2  0
  4  5  1  0
  5  6  1  0
  6  7  1  0
  7  8  2  0
  8  9  1  0
  9 10  2  0
 10 11  1  0
 10 12  1  0
 12 13  2  0
 13 14  1  0
  5 15  2  0
 15 16  1  0
 16 17  2  0
 17 18  1  0
 18 19  1  0
 19 20  1  0
 20 21  1  0
 21 22  1  0
 22 23  1  0
 23 24  1  0
 24 25  1  0
 25 26  1  0
 26 27  1  0
 27 28  2  0
 28 29  1  0
 29 30  2  0
 30 31  1  0
 31 32  2  0
 17  3  1  0
 32 27  1  0
 13  7  1  0
M  END
>  <zinc_id>  (653) 
ZINC000013532909

>  <ortholog_name>  (653) 
DRTS_PLAFK

>  <gene_name>  (653) 
DRTS_PLAFK

>  <affinity>  (653) 
5.66

>  <chembldocid>  (653) 
17636

>  <title>  (653) 
None

>  <reference.pubmed_id>  (653) 
14711307

>  <reference.doi>  (653) 
None

>  <reference.chembl_id>  (653) 
CHEMBL1148379

>  <reference.journal>  (653) 
J. Med. Chem.

>  <reference.year>  (653) 
2004

$$$$

     RDKit          3D

 32 34  0  0  0  0  0  0  0  0999 V2000
   -1.9529    3.0981    0.5576 C   0  0  0  0  0  0  0  0  0  0  0  0
   -0.8687    2.2182    0.7944 O   0  0  0  0  0  0  0  0  0  0  0  0
   -1.0959    0.9145    1.2101 C   0  0  0  0  0  0  0  0  0  0  0  0
   -2.4118    0.4712    1.3950 C   0  0  0  0  0  0  0  0  0  0  0  0
   -2.6218   -0.8312    1.8095 C   0  0  0  0  0  0  0  0  0  0  0  0
   -4.0026   -1.3230    2.0106 C   0  0  0  0  0  0  0  0  0  0  0  0
   -4.3919   -1.1264    3.4292 C   0  0  0  0  0  0  0  0  0  0  0  0
   -5.2432   -0.0868    3.8199 C   0  0  0  0  0  0  0  0  0  0  0  0
   -5.6090    0.1111    5.0929 N   0  0  0  0  0  0  0  0  0  0  0  0
   -5.1373   -0.7249    6.0325 C   0  0  0  0  0  0  0  0  0  0  0  0
   -5.4867   -0.5730    7.4075 N   0  0  0  0  0  0  0  0  0  0  0  0
   -4.3239   -1.7244    5.6870 N   0  0  0  0  0  0  0  0  0  0  0  0
   -3.9308   -1.9615    4.4273 C   0  0  0  0  0  0  0  0  0  0  0  0
   -3.0654   -3.0240    4.0510 N   0  0  0  0  0  0  0  0  0  0  0  0
   -1.5725   -1.6893    2.0410 C   0  0  0  0  0  0  0  0  0  0  0  0
   -0.2657   -1.2167    1.8474 C   0  0  0  0  0  0  0  0  0  0  0  0
   -0.0282    0.0716    1.4361 C   0  0  0  0  0  0  0  0  0  0  0  0
    1.2400    0.5527    1.2408 O   0  0  0  0  0  0  0  0  0  0  0  0
    2.4578   -0.0666    1.3977 C   0  0  0  0  0  0  0  0  0  0  0  0
    2.7334   -1.2806    0.5964 C   0  0  0  0  0  0  0  0  0  0  0  0
    2.6775   -1.1444   -0.8784 C   0  0  0  0  0  0  0  0  0  0  0  0
    3.3377   -0.4076   -1.5948 O   0  0  0  0  0  0  0  0  0  0  0  0
    4.0050    0.3360   -2.3179 C   0  0  0  0  0  0  0  0  0  0  0  0
    4.9002   -0.3022   -3.3358 C   0  0  0  0  0  0  0  0  0  0  0  0
    4.0545   -1.1499   -4.2528 C   0  0  0  0  0  0  0  0  0  0  0  0
    3.0933   -0.3483   -4.8928 O   0  0  0  0  0  0  0  0  0  0  0  0
    3.4951    0.7136   -5.7066 C   0  0  0  0  0  0  0  0  0  0  0  0
    2.5805    1.5104   -6.3439 C   0  0  0  0  0  0  0  0  0  0  0  0
    2.9900    2.5381   -7.1310 C   0  0  0  0  0  0  0  0  0  0  0  0
    4.3307    2.7893   -7.2960 C   0  0  0  0  0  0  0  0  0  0  0  0
    5.2740    2.0078   -6.6699 C   0  0  0  0  0  0  0  0  0  0  0  0
    4.8386    0.9552   -5.8640 C   0  0  0  0  0  0  0  0  0  0  0  0
  1  2  1  0
  2  3  1  0
  3  4  2  0
  4  5  1  0
  5  6  1  0
  6  7  1  0
  7  8  2  0
  8  9  1  0
  9 10  2  0
 10 11  1  0
 10 12  1  0
 12 13  2  0
 13 14  1  0
  5 15  2  0
 15 16  1  0
 16 17  2  0
 17 18  1  0
 18 19  1  0
 19 20  1  0
 20 21  1  0
 21 22  1  0
 22 23  1  0
 23 24  1  0
 24 25  1  0
 25 26  1  0
 26 27  1  0
 27 28  2  0
 28 29  1  0
 29 30  2  0
 30 31  1  0
 31 32  2  0
 17  3  1  0
 32 27  1  0
 13  7  1  0
M  END
>  <zinc_id>  (654) 
ZINC000013532909

>  <ortholog_name>  (654) 
DRTS_PLAFK

>  <gene_name>  (654) 
DRTS_PLAFK

>  <affinity>  (654) 
6.37

>  <chembldocid>  (654) 
17636

>  <title>  (654) 
None

>  <reference.pubmed_id>  (654) 
14711307

>  <reference.doi>  (654) 
None

>  <reference.chembl_id>  (654) 
CHEMBL1148379

>  <reference.journal>  (654) 
J. Med. Chem.

>  <reference.year>  (654) 
2004

$$$$

     RDKit          3D

 33 35  0  0  0  0  0  0  0  0999 V2000
   -2.3775    2.0718   -3.2631 C   0  0  0  0  0  0  0  0  0  0  0  0
   -1.7368    0.7961   -2.8072 C   0  0  0  0  0  0  0  0  0  0  0  0
   -0.6140    0.9637   -2.0026 O   0  0  0  0  0  0  0  0  0  0  0  0
   -0.6104    1.6189   -0.7878 C   0  0  0  0  0  0  0  0  0  0  0  0
   -1.7422    2.1827   -0.2467 C   0  0  0  0  0  0  0  0  0  0  0  0
   -1.7366    2.8358    0.9687 C   0  0  0  0  0  0  0  0  0  0  0  0
   -3.0042    3.4273    1.4766 C   0  0  0  0  0  0  0  0  0  0  0  0
   -3.7702    2.3864    2.2122 C   0  0  0  0  0  0  0  0  0  0  0  0
   -3.8393    2.3029    3.5833 C   0  0  0  0  0  0  0  0  0  0  0  0
   -4.5593    1.3199    4.1410 N   0  0  0  0  0  0  0  0  0  0  0  0
   -5.2337    0.3892    3.4448 C   0  0  0  0  0  0  0  0  0  0  0  0
   -5.9933   -0.6474    4.0893 N   0  0  0  0  0  0  0  0  0  0  0  0
   -5.1625    0.4754    2.1049 N   0  0  0  0  0  0  0  0  0  0  0  0
   -4.4589    1.4353    1.4809 C   0  0  0  0  0  0  0  0  0  0  0  0
   -4.4312    1.4650    0.0508 N   0  0  0  0  0  0  0  0  0  0  0  0
   -0.5744    2.9412    1.6838 C   0  0  0  0  0  0  0  0  0  0  0  0
    0.5852    2.3952    1.1876 C   0  0  0  0  0  0  0  0  0  0  0  0
    0.5574    1.7479   -0.0275 C   0  0  0  0  0  0  0  0  0  0  0  0
    1.6872    1.1691   -0.6001 O   0  0  0  0  0  0  0  0  0  0  0  0
    2.9611    1.1778   -0.0103 C   0  0  0  0  0  0  0  0  0  0  0  0
    3.8987    0.4455   -0.9746 C   0  0  0  0  0  0  0  0  0  0  0  0
    3.9137    1.1760   -2.3010 C   0  0  0  0  0  0  0  0  0  0  0  0
    4.7315    0.5923   -3.2300 O   0  0  0  0  0  0  0  0  0  0  0  0
    4.4276   -0.7046   -3.5765 C   0  0  0  0  0  0  0  0  0  0  0  0
    4.4582   -1.6805   -2.4373 C   0  0  0  0  0  0  0  0  0  0  0  0
    4.0997   -3.0513   -3.0201 C   0  0  0  0  0  0  0  0  0  0  0  0
    4.0966   -4.0495   -2.0253 O   0  0  0  0  0  0  0  0  0  0  0  0
    3.2335   -3.9637   -0.9151 C   0  0  0  0  0  0  0  0  0  0  0  0
    2.3845   -2.8807   -0.8139 C   0  0  0  0  0  0  0  0  0  0  0  0
    1.5483   -2.8095    0.2742 C   0  0  0  0  0  0  0  0  0  0  0  0
    1.5750   -3.8025    1.2224 C   0  0  0  0  0  0  0  0  0  0  0  0
    2.4210   -4.8570    1.0970 C   0  0  0  0  0  0  0  0  0  0  0  0
    3.2653   -4.9521    0.0217 C   0  0  0  0  0  0  0  0  0  0  0  0
  1  2  1  0
  2  3  1  0
  3  4  1  0
  4  5  2  0
  5  6  1  0
  6  7  1  0
  7  8  1  0
  8  9  2  0
  9 10  1  0
 10 11  2  0
 11 12  1  0
 11 13  1  0
 13 14  2  0
 14 15  1  0
  6 16  2  0
 16 17  1  0
 17 18  2  0
 18 19  1  0
 19 20  1  0
 20 21  1  0
 21 22  1  0
 22 23  1  0
 23 24  1  0
 24 25  1  0
 25 26  1  0
 26 27  1  0
 27 28  1  0
 28 29  2  0
 29 30  1  0
 30 31  2  0
 31 32  1  0
 32 33  2  0
 18  4  1  0
 33 28  1  0
 14  8  1  0
M  END
>  <zinc_id>  (655) 
ZINC000013532914

>  <ortholog_name>  (655) 
DRTS_PLAFK

>  <gene_name>  (655) 
DRTS_PLAFK

>  <affinity>  (655) 
8.64

>  <chembldocid>  (655) 
17636

>  <title>  (655) 
None

>  <reference.pubmed_id>  (655) 
14711307

>  <reference.doi>  (655) 
None

>  <reference.chembl_id>  (655) 
CHEMBL1148379

>  <reference.journal>  (655) 
J. Med. Chem.

>  <reference.year>  (655) 
2004

$$$$

     RDKit          3D

 33 35  0  0  0  0  0  0  0  0999 V2000
   -2.3775    2.0718   -3.2631 C   0  0  0  0  0  0  0  0  0  0  0  0
   -1.7368    0.7961   -2.8072 C   0  0  0  0  0  0  0  0  0  0  0  0
   -0.6140    0.9637   -2.0026 O   0  0  0  0  0  0  0  0  0  0  0  0
   -0.6104    1.6189   -0.7878 C   0  0  0  0  0  0  0  0  0  0  0  0
   -1.7422    2.1827   -0.2467 C   0  0  0  0  0  0  0  0  0  0  0  0
   -1.7366    2.8358    0.9687 C   0  0  0  0  0  0  0  0  0  0  0  0
   -3.0042    3.4273    1.4766 C   0  0  0  0  0  0  0  0  0  0  0  0
   -3.7702    2.3864    2.2122 C   0  0  0  0  0  0  0  0  0  0  0  0
   -3.8393    2.3029    3.5833 C   0  0  0  0  0  0  0  0  0  0  0  0
   -4.5593    1.3199    4.1410 N   0  0  0  0  0  0  0  0  0  0  0  0
   -5.2337    0.3892    3.4448 C   0  0  0  0  0  0  0  0  0  0  0  0
   -5.9933   -0.6474    4.0893 N   0  0  0  0  0  0  0  0  0  0  0  0
   -5.1625    0.4754    2.1049 N   0  0  0  0  0  0  0  0  0  0  0  0
   -4.4589    1.4353    1.4809 C   0  0  0  0  0  0  0  0  0  0  0  0
   -4.4312    1.4650    0.0508 N   0  0  0  0  0  0  0  0  0  0  0  0
   -0.5744    2.9412    1.6838 C   0  0  0  0  0  0  0  0  0  0  0  0
    0.5852    2.3952    1.1876 C   0  0  0  0  0  0  0  0  0  0  0  0
    0.5574    1.7479   -0.0275 C   0  0  0  0  0  0  0  0  0  0  0  0
    1.6872    1.1691   -0.6001 O   0  0  0  0  0  0  0  0  0  0  0  0
    2.9611    1.1778   -0.0103 C   0  0  0  0  0  0  0  0  0  0  0  0
    3.8987    0.4455   -0.9746 C   0  0  0  0  0  0  0  0  0  0  0  0
    3.9137    1.1760   -2.3010 C   0  0  0  0  0  0  0  0  0  0  0  0
    4.7315    0.5923   -3.2300 O   0  0  0  0  0  0  0  0  0  0  0  0
    4.4276   -0.7046   -3.5765 C   0  0  0  0  0  0  0  0  0  0  0  0
    4.4582   -1.6805   -2.4373 C   0  0  0  0  0  0  0  0  0  0  0  0
    4.0997   -3.0513   -3.0201 C   0  0  0  0  0  0  0  0  0  0  0  0
    4.0966   -4.0495   -2.0253 O   0  0  0  0  0  0  0  0  0  0  0  0
    3.2335   -3.9637   -0.9151 C   0  0  0  0  0  0  0  0  0  0  0  0
    2.3845   -2.8807   -0.8139 C   0  0  0  0  0  0  0  0  0  0  0  0
    1.5483   -2.8095    0.2742 C   0  0  0  0  0  0  0  0  0  0  0  0
    1.5750   -3.8025    1.2224 C   0  0  0  0  0  0  0  0  0  0  0  0
    2.4210   -4.8570    1.0970 C   0  0  0  0  0  0  0  0  0  0  0  0
    3.2653   -4.9521    0.0217 C   0  0  0  0  0  0  0  0  0  0  0  0
  1  2  1  0
  2  3  1  0
  3  4  1  0
  4  5  2  0
  5  6  1  0
  6  7  1  0
  7  8  1  0
  8  9  2  0
  9 10  1  0
 10 11  2  0
 11 12  1  0
 11 13  1  0
 13 14  2  0
 14 15  1  0
  6 16  2  0
 16 17  1  0
 17 18  2  0
 18 19  1  0
 19 20  1  0
 20 21  1  0
 21 22  1  0
 22 23  1  0
 23 24  1  0
 24 25  1  0
 25 26  1  0
 26 27  1  0
 27 28  1  0
 28 29  2  0
 29 30  1  0
 30 31  2  0
 31 32  1  0
 32 33  2  0
 18  4  1  0
 33 28  1  0
 14  8  1  0
M  END
>  <zinc_id>  (656) 
ZINC000013532914

>  <ortholog_name>  (656) 
DRTS_PLAFK

>  <gene_name>  (656) 
DRTS_PLAFK

>  <affinity>  (656) 
6.50

>  <chembldocid>  (656) 
17636

>  <title>  (656) 
None

>  <reference.pubmed_id>  (656) 
14711307

>  <reference.doi>  (656) 
None

>  <reference.chembl_id>  (656) 
CHEMBL1148379

>  <reference.journal>  (656) 
J. Med. Chem.

>  <reference.year>  (656) 
2004

$$$$

     RDKit          3D

 33 35  0  0  0  0  0  0  0  0999 V2000
   -2.3775    2.0718   -3.2631 C   0  0  0  0  0  0  0  0  0  0  0  0
   -1.7368    0.7961   -2.8072 C   0  0  0  0  0  0  0  0  0  0  0  0
   -0.6140    0.9637   -2.0026 O   0  0  0  0  0  0  0  0  0  0  0  0
   -0.6104    1.6189   -0.7878 C   0  0  0  0  0  0  0  0  0  0  0  0
   -1.7422    2.1827   -0.2467 C   0  0  0  0  0  0  0  0  0  0  0  0
   -1.7366    2.8358    0.9687 C   0  0  0  0  0  0  0  0  0  0  0  0
   -3.0042    3.4273    1.4766 C   0  0  0  0  0  0  0  0  0  0  0  0
   -3.7702    2.3864    2.2122 C   0  0  0  0  0  0  0  0  0  0  0  0
   -3.8393    2.3029    3.5833 C   0  0  0  0  0  0  0  0  0  0  0  0
   -4.5593    1.3199    4.1410 N   0  0  0  0  0  0  0  0  0  0  0  0
   -5.2337    0.3892    3.4448 C   0  0  0  0  0  0  0  0  0  0  0  0
   -5.9933   -0.6474    4.0893 N   0  0  0  0  0  0  0  0  0  0  0  0
   -5.1625    0.4754    2.1049 N   0  0  0  0  0  0  0  0  0  0  0  0
   -4.4589    1.4353    1.4809 C   0  0  0  0  0  0  0  0  0  0  0  0
   -4.4312    1.4650    0.0508 N   0  0  0  0  0  0  0  0  0  0  0  0
   -0.5744    2.9412    1.6838 C   0  0  0  0  0  0  0  0  0  0  0  0
    0.5852    2.3952    1.1876 C   0  0  0  0  0  0  0  0  0  0  0  0
    0.5574    1.7479   -0.0275 C   0  0  0  0  0  0  0  0  0  0  0  0
    1.6872    1.1691   -0.6001 O   0  0  0  0  0  0  0  0  0  0  0  0
    2.9611    1.1778   -0.0103 C   0  0  0  0  0  0  0  0  0  0  0  0
    3.8987    0.4455   -0.9746 C   0  0  0  0  0  0  0  0  0  0  0  0
    3.9137    1.1760   -2.3010 C   0  0  0  0  0  0  0  0  0  0  0  0
    4.7315    0.5923   -3.2300 O   0  0  0  0  0  0  0  0  0  0  0  0
    4.4276   -0.7046   -3.5765 C   0  0  0  0  0  0  0  0  0  0  0  0
    4.4582   -1.6805   -2.4373 C   0  0  0  0  0  0  0  0  0  0  0  0
    4.0997   -3.0513   -3.0201 C   0  0  0  0  0  0  0  0  0  0  0  0
    4.0966   -4.0495   -2.0253 O   0  0  0  0  0  0  0  0  0  0  0  0
    3.2335   -3.9637   -0.9151 C   0  0  0  0  0  0  0  0  0  0  0  0
    2.3845   -2.8807   -0.8139 C   0  0  0  0  0  0  0  0  0  0  0  0
    1.5483   -2.8095    0.2742 C   0  0  0  0  0  0  0  0  0  0  0  0
    1.5750   -3.8025    1.2224 C   0  0  0  0  0  0  0  0  0  0  0  0
    2.4210   -4.8570    1.0970 C   0  0  0  0  0  0  0  0  0  0  0  0
    3.2653   -4.9521    0.0217 C   0  0  0  0  0  0  0  0  0  0  0  0
  1  2  1  0
  2  3  1  0
  3  4  1  0
  4  5  2  0
  5  6  1  0
  6  7  1  0
  7  8  1  0
  8  9  2  0
  9 10  1  0
 10 11  2  0
 11 12  1  0
 11 13  1  0
 13 14  2  0
 14 15  1  0
  6 16  2  0
 16 17  1  0
 17 18  2  0
 18 19  1  0
 19 20  1  0
 20 21  1  0
 21 22  1  0
 22 23  1  0
 23 24  1  0
 24 25  1  0
 25 26  1  0
 26 27  1  0
 27 28  1  0
 28 29  2  0
 29 30  1  0
 30 31  2  0
 31 32  1  0
 32 33  2  0
 18  4  1  0
 33 28  1  0
 14  8  1  0
M  END
>  <zinc_id>  (657) 
ZINC000013532914

>  <ortholog_name>  (657) 
DRTS_PLAFK

>  <gene_name>  (657) 
DRTS_PLAFK

>  <affinity>  (657) 
7.33

>  <chembldocid>  (657) 
17636

>  <title>  (657) 
None

>  <reference.pubmed_id>  (657) 
14711307

>  <reference.doi>  (657) 
None

>  <reference.chembl_id>  (657) 
CHEMBL1148379

>  <reference.journal>  (657) 
J. Med. Chem.

>  <reference.year>  (657) 
2004

$$$$

     RDKit          3D

 33 35  0  0  0  0  0  0  0  0999 V2000
   -2.3775    2.0718   -3.2631 C   0  0  0  0  0  0  0  0  0  0  0  0
   -1.7368    0.7961   -2.8072 C   0  0  0  0  0  0  0  0  0  0  0  0
   -0.6140    0.9637   -2.0026 O   0  0  0  0  0  0  0  0  0  0  0  0
   -0.6104    1.6189   -0.7878 C   0  0  0  0  0  0  0  0  0  0  0  0
   -1.7422    2.1827   -0.2467 C   0  0  0  0  0  0  0  0  0  0  0  0
   -1.7366    2.8358    0.9687 C   0  0  0  0  0  0  0  0  0  0  0  0
   -3.0042    3.4273    1.4766 C   0  0  0  0  0  0  0  0  0  0  0  0
   -3.7702    2.3864    2.2122 C   0  0  0  0  0  0  0  0  0  0  0  0
   -3.8393    2.3029    3.5833 C   0  0  0  0  0  0  0  0  0  0  0  0
   -4.5593    1.3199    4.1410 N   0  0  0  0  0  0  0  0  0  0  0  0
   -5.2337    0.3892    3.4448 C   0  0  0  0  0  0  0  0  0  0  0  0
   -5.9933   -0.6474    4.0893 N   0  0  0  0  0  0  0  0  0  0  0  0
   -5.1625    0.4754    2.1049 N   0  0  0  0  0  0  0  0  0  0  0  0
   -4.4589    1.4353    1.4809 C   0  0  0  0  0  0  0  0  0  0  0  0
   -4.4312    1.4650    0.0508 N   0  0  0  0  0  0  0  0  0  0  0  0
   -0.5744    2.9412    1.6838 C   0  0  0  0  0  0  0  0  0  0  0  0
    0.5852    2.3952    1.1876 C   0  0  0  0  0  0  0  0  0  0  0  0
    0.5574    1.7479   -0.0275 C   0  0  0  0  0  0  0  0  0  0  0  0
    1.6872    1.1691   -0.6001 O   0  0  0  0  0  0  0  0  0  0  0  0
    2.9611    1.1778   -0.0103 C   0  0  0  0  0  0  0  0  0  0  0  0
    3.8987    0.4455   -0.9746 C   0  0  0  0  0  0  0  0  0  0  0  0
    3.9137    1.1760   -2.3010 C   0  0  0  0  0  0  0  0  0  0  0  0
    4.7315    0.5923   -3.2300 O   0  0  0  0  0  0  0  0  0  0  0  0
    4.4276   -0.7046   -3.5765 C   0  0  0  0  0  0  0  0  0  0  0  0
    4.4582   -1.6805   -2.4373 C   0  0  0  0  0  0  0  0  0  0  0  0
    4.0997   -3.0513   -3.0201 C   0  0  0  0  0  0  0  0  0  0  0  0
    4.0966   -4.0495   -2.0253 O   0  0  0  0  0  0  0  0  0  0  0  0
    3.2335   -3.9637   -0.9151 C   0  0  0  0  0  0  0  0  0  0  0  0
    2.3845   -2.8807   -0.8139 C   0  0  0  0  0  0  0  0  0  0  0  0
    1.5483   -2.8095    0.2742 C   0  0  0  0  0  0  0  0  0  0  0  0
    1.5750   -3.8025    1.2224 C   0  0  0  0  0  0  0  0  0  0  0  0
    2.4210   -4.8570    1.0970 C   0  0  0  0  0  0  0  0  0  0  0  0
    3.2653   -4.9521    0.0217 C   0  0  0  0  0  0  0  0  0  0  0  0
  1  2  1  0
  2  3  1  0
  3  4  1  0
  4  5  2  0
  5  6  1  0
  6  7  1  0
  7  8  1  0
  8  9  2  0
  9 10  1  0
 10 11  2  0
 11 12  1  0
 11 13  1  0
 13 14  2  0
 14 15  1  0
  6 16  2  0
 16 17  1  0
 17 18  2  0
 18 19  1  0
 19 20  1  0
 20 21  1  0
 21 22  1  0
 22 23  1  0
 23 24  1  0
 24 25  1  0
 25 26  1  0
 26 27  1  0
 27 28  1  0
 28 29  2  0
 29 30  1  0
 30 31  2  0
 31 32  1  0
 32 33  2  0
 18  4  1  0
 33 28  1  0
 14  8  1  0
M  END
>  <zinc_id>  (658) 
ZINC000013532914

>  <ortholog_name>  (658) 
DRTS_PLAFK

>  <gene_name>  (658) 
DRTS_PLAFK

>  <affinity>  (658) 
6.03

>  <chembldocid>  (658) 
17636

>  <title>  (658) 
None

>  <reference.pubmed_id>  (658) 
14711307

>  <reference.doi>  (658) 
None

>  <reference.chembl_id>  (658) 
CHEMBL1148379

>  <reference.journal>  (658) 
J. Med. Chem.

>  <reference.year>  (658) 
2004

$$$$

     RDKit          3D

 22 23  0  0  0  0  0  0  0  0999 V2000
   -2.9438    1.0782   -2.7373 C   0  0  0  0  0  0  0  0  0  0  0  0
   -3.3625    0.7658   -1.4241 O   0  0  0  0  0  0  0  0  0  0  0  0
   -2.4370    0.0978   -0.6191 C   0  0  0  0  0  0  0  0  0  0  0  0
   -1.1621   -0.2461   -1.0828 C   0  0  0  0  0  0  0  0  0  0  0  0
   -0.2707   -0.9042   -0.2670 C   0  0  0  0  0  0  0  0  0  0  0  0
    1.0642   -1.2516   -0.7898 C   0  0  0  0  0  0  0  0  0  0  0  0
    2.0875   -0.2268   -0.5775 C   0  0  0  0  0  0  0  0  0  0  0  0
    2.6225   -0.0962    0.6972 C   0  0  0  0  0  0  0  0  0  0  0  0
    2.1438   -0.9909    1.7889 C   0  0  0  0  0  0  0  0  0  0  0  0
    3.5719    0.8219    0.9876 N   0  0  0  0  0  0  0  0  0  0  0  0
    4.0269    1.6453    0.0261 C   0  0  0  0  0  0  0  0  0  0  0  0
    5.0324    2.6329    0.2901 N   0  0  0  0  0  0  0  0  0  0  0  0
    3.4993    1.5074   -1.2046 N   0  0  0  0  0  0  0  0  0  0  0  0
    2.5696    0.6268   -1.5420 C   0  0  0  0  0  0  0  0  0  0  0  0
    2.0269    0.5016   -2.8523 N   0  0  0  0  0  0  0  0  0  0  0  0
   -0.6859   -1.2044    1.0093 C   0  0  0  0  0  0  0  0  0  0  0  0
   -1.9489   -0.8658    1.4745 C   0  0  0  0  0  0  0  0  0  0  0  0
   -2.3341   -1.1829    2.7642 O   0  0  0  0  0  0  0  0  0  0  0  0
   -1.4016   -1.8590    3.5832 C   0  0  0  0  0  0  0  0  0  0  0  0
   -2.8276   -0.2074    0.6438 C   0  0  0  0  0  0  0  0  0  0  0  0
   -4.0805    0.1125    1.1488 O   0  0  0  0  0  0  0  0  0  0  0  0
   -5.1907   -0.7552    1.0437 C   0  0  0  0  0  0  0  0  0  0  0  0
  1  2  1  0
  2  3  1  0
  3  4  2  0
  4  5  1  0
  5  6  1  0
  6  7  1  0
  7  8  2  0
  8  9  1  0
  8 10  1  0
 10 11  2  0
 11 12  1  0
 11 13  1  0
 13 14  2  0
 14 15  1  0
  5 16  2  0
 16 17  1  0
 17 18  1  0
 18 19  1  0
 17 20  2  0
 20 21  1  0
 21 22  1  0
 20  3  1  0
 14  7  1  0
M  END
>  <zinc_id>  (659) 
ZINC000013532920

>  <ortholog_name>  (659) 
DRTS_PLAFK

>  <gene_name>  (659) 
DRTS_PLAFK

>  <affinity>  (659) 
5.87

>  <chembldocid>  (659) 
17636

>  <title>  (659) 
None

>  <reference.pubmed_id>  (659) 
14711307

>  <reference.doi>  (659) 
None

>  <reference.chembl_id>  (659) 
CHEMBL1148379

>  <reference.journal>  (659) 
J. Med. Chem.

>  <reference.year>  (659) 
2004

$$$$

     RDKit          3D

 22 23  0  0  0  0  0  0  0  0999 V2000
   -2.9438    1.0782   -2.7373 C   0  0  0  0  0  0  0  0  0  0  0  0
   -3.3625    0.7658   -1.4241 O   0  0  0  0  0  0  0  0  0  0  0  0
   -2.4370    0.0978   -0.6191 C   0  0  0  0  0  0  0  0  0  0  0  0
   -1.1621   -0.2461   -1.0828 C   0  0  0  0  0  0  0  0  0  0  0  0
   -0.2707   -0.9042   -0.2670 C   0  0  0  0  0  0  0  0  0  0  0  0
    1.0642   -1.2516   -0.7898 C   0  0  0  0  0  0  0  0  0  0  0  0
    2.0875   -0.2268   -0.5775 C   0  0  0  0  0  0  0  0  0  0  0  0
    2.6225   -0.0962    0.6972 C   0  0  0  0  0  0  0  0  0  0  0  0
    2.1438   -0.9909    1.7889 C   0  0  0  0  0  0  0  0  0  0  0  0
    3.5719    0.8219    0.9876 N   0  0  0  0  0  0  0  0  0  0  0  0
    4.0269    1.6453    0.0261 C   0  0  0  0  0  0  0  0  0  0  0  0
    5.0324    2.6329    0.2901 N   0  0  0  0  0  0  0  0  0  0  0  0
    3.4993    1.5074   -1.2046 N   0  0  0  0  0  0  0  0  0  0  0  0
    2.5696    0.6268   -1.5420 C   0  0  0  0  0  0  0  0  0  0  0  0
    2.0269    0.5016   -2.8523 N   0  0  0  0  0  0  0  0  0  0  0  0
   -0.6859   -1.2044    1.0093 C   0  0  0  0  0  0  0  0  0  0  0  0
   -1.9489   -0.8658    1.4745 C   0  0  0  0  0  0  0  0  0  0  0  0
   -2.3341   -1.1829    2.7642 O   0  0  0  0  0  0  0  0  0  0  0  0
   -1.4016   -1.8590    3.5832 C   0  0  0  0  0  0  0  0  0  0  0  0
   -2.8276   -0.2074    0.6438 C   0  0  0  0  0  0  0  0  0  0  0  0
   -4.0805    0.1125    1.1488 O   0  0  0  0  0  0  0  0  0  0  0  0
   -5.1907   -0.7552    1.0437 C   0  0  0  0  0  0  0  0  0  0  0  0
  1  2  1  0
  2  3  1  0
  3  4  2  0
  4  5  1  0
  5  6  1  0
  6  7  1  0
  7  8  2  0
  8  9  1  0
  8 10  1  0
 10 11  2  0
 11 12  1  0
 11 13  1  0
 13 14  2  0
 14 15  1  0
  5 16  2  0
 16 17  1  0
 17 18  1  0
 18 19  1  0
 17 20  2  0
 20 21  1  0
 21 22  1  0
 20  3  1  0
 14  7  1  0
M  END
>  <zinc_id>  (660) 
ZINC000013532920

>  <ortholog_name>  (660) 
DRTS_PLAFK

>  <gene_name>  (660) 
DRTS_PLAFK

>  <affinity>  (660) 
5.79

>  <chembldocid>  (660) 
17636

>  <title>  (660) 
None

>  <reference.pubmed_id>  (660) 
14711307

>  <reference.doi>  (660) 
None

>  <reference.chembl_id>  (660) 
CHEMBL1148379

>  <reference.journal>  (660) 
J. Med. Chem.

>  <reference.year>  (660) 
2004

$$$$

     RDKit          3D

 22 23  0  0  0  0  0  0  0  0999 V2000
   -2.9438    1.0782   -2.7373 C   0  0  0  0  0  0  0  0  0  0  0  0
   -3.3625    0.7658   -1.4241 O   0  0  0  0  0  0  0  0  0  0  0  0
   -2.4370    0.0978   -0.6191 C   0  0  0  0  0  0  0  0  0  0  0  0
   -1.1621   -0.2461   -1.0828 C   0  0  0  0  0  0  0  0  0  0  0  0
   -0.2707   -0.9042   -0.2670 C   0  0  0  0  0  0  0  0  0  0  0  0
    1.0642   -1.2516   -0.7898 C   0  0  0  0  0  0  0  0  0  0  0  0
    2.0875   -0.2268   -0.5775 C   0  0  0  0  0  0  0  0  0  0  0  0
    2.6225   -0.0962    0.6972 C   0  0  0  0  0  0  0  0  0  0  0  0
    2.1438   -0.9909    1.7889 C   0  0  0  0  0  0  0  0  0  0  0  0
    3.5719    0.8219    0.9876 N   0  0  0  0  0  0  0  0  0  0  0  0
    4.0269    1.6453    0.0261 C   0  0  0  0  0  0  0  0  0  0  0  0
    5.0324    2.6329    0.2901 N   0  0  0  0  0  0  0  0  0  0  0  0
    3.4993    1.5074   -1.2046 N   0  0  0  0  0  0  0  0  0  0  0  0
    2.5696    0.6268   -1.5420 C   0  0  0  0  0  0  0  0  0  0  0  0
    2.0269    0.5016   -2.8523 N   0  0  0  0  0  0  0  0  0  0  0  0
   -0.6859   -1.2044    1.0093 C   0  0  0  0  0  0  0  0  0  0  0  0
   -1.9489   -0.8658    1.4745 C   0  0  0  0  0  0  0  0  0  0  0  0
   -2.3341   -1.1829    2.7642 O   0  0  0  0  0  0  0  0  0  0  0  0
   -1.4016   -1.8590    3.5832 C   0  0  0  0  0  0  0  0  0  0  0  0
   -2.8276   -0.2074    0.6438 C   0  0  0  0  0  0  0  0  0  0  0  0
   -4.0805    0.1125    1.1488 O   0  0  0  0  0  0  0  0  0  0  0  0
   -5.1907   -0.7552    1.0437 C   0  0  0  0  0  0  0  0  0  0  0  0
  1  2  1  0
  2  3  1  0
  3  4  2  0
  4  5  1  0
  5  6  1  0
  6  7  1  0
  7  8  2  0
  8  9  1  0
  8 10  1  0
 10 11  2  0
 11 12  1  0
 11 13  1  0
 13 14  2  0
 14 15  1  0
  5 16  2  0
 16 17  1  0
 17 18  1  0
 18 19  1  0
 17 20  2  0
 20 21  1  0
 21 22  1  0
 20  3  1  0
 14  7  1  0
M  END
>  <zinc_id>  (661) 
ZINC000013532920

>  <ortholog_name>  (661) 
DRTS_PLAFK

>  <gene_name>  (661) 
DRTS_PLAFK

>  <affinity>  (661) 
5.47

>  <chembldocid>  (661) 
17636

>  <title>  (661) 
None

>  <reference.pubmed_id>  (661) 
14711307

>  <reference.doi>  (661) 
None

>  <reference.chembl_id>  (661) 
CHEMBL1148379

>  <reference.journal>  (661) 
J. Med. Chem.

>  <reference.year>  (661) 
2004

$$$$

     RDKit          3D

 22 23  0  0  0  0  0  0  0  0999 V2000
   -2.9438    1.0782   -2.7373 C   0  0  0  0  0  0  0  0  0  0  0  0
   -3.3625    0.7658   -1.4241 O   0  0  0  0  0  0  0  0  0  0  0  0
   -2.4370    0.0978   -0.6191 C   0  0  0  0  0  0  0  0  0  0  0  0
   -1.1621   -0.2461   -1.0828 C   0  0  0  0  0  0  0  0  0  0  0  0
   -0.2707   -0.9042   -0.2670 C   0  0  0  0  0  0  0  0  0  0  0  0
    1.0642   -1.2516   -0.7898 C   0  0  0  0  0  0  0  0  0  0  0  0
    2.0875   -0.2268   -0.5775 C   0  0  0  0  0  0  0  0  0  0  0  0
    2.6225   -0.0962    0.6972 C   0  0  0  0  0  0  0  0  0  0  0  0
    2.1438   -0.9909    1.7889 C   0  0  0  0  0  0  0  0  0  0  0  0
    3.5719    0.8219    0.9876 N   0  0  0  0  0  0  0  0  0  0  0  0
    4.0269    1.6453    0.0261 C   0  0  0  0  0  0  0  0  0  0  0  0
    5.0324    2.6329    0.2901 N   0  0  0  0  0  0  0  0  0  0  0  0
    3.4993    1.5074   -1.2046 N   0  0  0  0  0  0  0  0  0  0  0  0
    2.5696    0.6268   -1.5420 C   0  0  0  0  0  0  0  0  0  0  0  0
    2.0269    0.5016   -2.8523 N   0  0  0  0  0  0  0  0  0  0  0  0
   -0.6859   -1.2044    1.0093 C   0  0  0  0  0  0  0  0  0  0  0  0
   -1.9489   -0.8658    1.4745 C   0  0  0  0  0  0  0  0  0  0  0  0
   -2.3341   -1.1829    2.7642 O   0  0  0  0  0  0  0  0  0  0  0  0
   -1.4016   -1.8590    3.5832 C   0  0  0  0  0  0  0  0  0  0  0  0
   -2.8276   -0.2074    0.6438 C   0  0  0  0  0  0  0  0  0  0  0  0
   -4.0805    0.1125    1.1488 O   0  0  0  0  0  0  0  0  0  0  0  0
   -5.1907   -0.7552    1.0437 C   0  0  0  0  0  0  0  0  0  0  0  0
  1  2  1  0
  2  3  1  0
  3  4  2  0
  4  5  1  0
  5  6  1  0
  6  7  1  0
  7  8  2  0
  8  9  1  0
  8 10  1  0
 10 11  2  0
 11 12  1  0
 11 13  1  0
 13 14  2  0
 14 15  1  0
  5 16  2  0
 16 17  1  0
 17 18  1  0
 18 19  1  0
 17 20  2  0
 20 21  1  0
 21 22  1  0
 20  3  1  0
 14  7  1  0
M  END
>  <zinc_id>  (662) 
ZINC000013532920

>  <ortholog_name>  (662) 
DRTS_PLAFK

>  <gene_name>  (662) 
DRTS_PLAFK

>  <affinity>  (662) 
7.42

>  <chembldocid>  (662) 
17636

>  <title>  (662) 
None

>  <reference.pubmed_id>  (662) 
14711307

>  <reference.doi>  (662) 
None

>  <reference.chembl_id>  (662) 
CHEMBL1148379

>  <reference.journal>  (662) 
J. Med. Chem.

>  <reference.year>  (662) 
2004

$$$$

     RDKit          3D

 22 23  0  0  0  0  0  0  0  0999 V2000
   -2.9438    1.0782   -2.7373 C   0  0  0  0  0  0  0  0  0  0  0  0
   -3.3625    0.7658   -1.4241 O   0  0  0  0  0  0  0  0  0  0  0  0
   -2.4370    0.0978   -0.6191 C   0  0  0  0  0  0  0  0  0  0  0  0
   -1.1621   -0.2461   -1.0828 C   0  0  0  0  0  0  0  0  0  0  0  0
   -0.2707   -0.9042   -0.2670 C   0  0  0  0  0  0  0  0  0  0  0  0
    1.0642   -1.2516   -0.7898 C   0  0  0  0  0  0  0  0  0  0  0  0
    2.0875   -0.2268   -0.5775 C   0  0  0  0  0  0  0  0  0  0  0  0
    2.6225   -0.0962    0.6972 C   0  0  0  0  0  0  0  0  0  0  0  0
    2.1438   -0.9909    1.7889 C   0  0  0  0  0  0  0  0  0  0  0  0
    3.5719    0.8219    0.9876 N   0  0  0  0  0  0  0  0  0  0  0  0
    4.0269    1.6453    0.0261 C   0  0  0  0  0  0  0  0  0  0  0  0
    5.0324    2.6329    0.2901 N   0  0  0  0  0  0  0  0  0  0  0  0
    3.4993    1.5074   -1.2046 N   0  0  0  0  0  0  0  0  0  0  0  0
    2.5696    0.6268   -1.5420 C   0  0  0  0  0  0  0  0  0  0  0  0
    2.0269    0.5016   -2.8523 N   0  0  0  0  0  0  0  0  0  0  0  0
   -0.6859   -1.2044    1.0093 C   0  0  0  0  0  0  0  0  0  0  0  0
   -1.9489   -0.8658    1.4745 C   0  0  0  0  0  0  0  0  0  0  0  0
   -2.3341   -1.1829    2.7642 O   0  0  0  0  0  0  0  0  0  0  0  0
   -1.4016   -1.8590    3.5832 C   0  0  0  0  0  0  0  0  0  0  0  0
   -2.8276   -0.2074    0.6438 C   0  0  0  0  0  0  0  0  0  0  0  0
   -4.0805    0.1125    1.1488 O   0  0  0  0  0  0  0  0  0  0  0  0
   -5.1907   -0.7552    1.0437 C   0  0  0  0  0  0  0  0  0  0  0  0
  1  2  1  0
  2  3  1  0
  3  4  2  0
  4  5  1  0
  5  6  1  0
  6  7  1  0
  7  8  2  0
  8  9  1  0
  8 10  1  0
 10 11  2  0
 11 12  1  0
 11 13  1  0
 13 14  2  0
 14 15  1  0
  5 16  2  0
 16 17  1  0
 17 18  1  0
 18 19  1  0
 17 20  2  0
 20 21  1  0
 21 22  1  0
 20  3  1  0
 14  7  1  0
M  END
>  <zinc_id>  (663) 
ZINC000013532920

>  <ortholog_name>  (663) 
DRTS_PLAFK

>  <gene_name>  (663) 
DRTS_PLAFK

>  <affinity>  (663) 
6.30

>  <chembldocid>  (663) 
17636

>  <title>  (663) 
None

>  <reference.pubmed_id>  (663) 
14711307

>  <reference.doi>  (663) 
None

>  <reference.chembl_id>  (663) 
CHEMBL1148379

>  <reference.journal>  (663) 
J. Med. Chem.

>  <reference.year>  (663) 
2004

$$$$

     RDKit          3D

 22 23  0  0  0  0  0  0  0  0999 V2000
   -2.9438    1.0782   -2.7373 C   0  0  0  0  0  0  0  0  0  0  0  0
   -3.3625    0.7658   -1.4241 O   0  0  0  0  0  0  0  0  0  0  0  0
   -2.4370    0.0978   -0.6191 C   0  0  0  0  0  0  0  0  0  0  0  0
   -1.1621   -0.2461   -1.0828 C   0  0  0  0  0  0  0  0  0  0  0  0
   -0.2707   -0.9042   -0.2670 C   0  0  0  0  0  0  0  0  0  0  0  0
    1.0642   -1.2516   -0.7898 C   0  0  0  0  0  0  0  0  0  0  0  0
    2.0875   -0.2268   -0.5775 C   0  0  0  0  0  0  0  0  0  0  0  0
    2.6225   -0.0962    0.6972 C   0  0  0  0  0  0  0  0  0  0  0  0
    2.1438   -0.9909    1.7889 C   0  0  0  0  0  0  0  0  0  0  0  0
    3.5719    0.8219    0.9876 N   0  0  0  0  0  0  0  0  0  0  0  0
    4.0269    1.6453    0.0261 C   0  0  0  0  0  0  0  0  0  0  0  0
    5.0324    2.6329    0.2901 N   0  0  0  0  0  0  0  0  0  0  0  0
    3.4993    1.5074   -1.2046 N   0  0  0  0  0  0  0  0  0  0  0  0
    2.5696    0.6268   -1.5420 C   0  0  0  0  0  0  0  0  0  0  0  0
    2.0269    0.5016   -2.8523 N   0  0  0  0  0  0  0  0  0  0  0  0
   -0.6859   -1.2044    1.0093 C   0  0  0  0  0  0  0  0  0  0  0  0
   -1.9489   -0.8658    1.4745 C   0  0  0  0  0  0  0  0  0  0  0  0
   -2.3341   -1.1829    2.7642 O   0  0  0  0  0  0  0  0  0  0  0  0
   -1.4016   -1.8590    3.5832 C   0  0  0  0  0  0  0  0  0  0  0  0
   -2.8276   -0.2074    0.6438 C   0  0  0  0  0  0  0  0  0  0  0  0
   -4.0805    0.1125    1.1488 O   0  0  0  0  0  0  0  0  0  0  0  0
   -5.1907   -0.7552    1.0437 C   0  0  0  0  0  0  0  0  0  0  0  0
  1  2  1  0
  2  3  1  0
  3  4  2  0
  4  5  1  0
  5  6  1  0
  6  7  1  0
  7  8  2  0
  8  9  1  0
  8 10  1  0
 10 11  2  0
 11 12  1  0
 11 13  1  0
 13 14  2  0
 14 15  1  0
  5 16  2  0
 16 17  1  0
 17 18  1  0
 18 19  1  0
 17 20  2  0
 20 21  1  0
 21 22  1  0
 20  3  1  0
 14  7  1  0
M  END
>  <zinc_id>  (664) 
ZINC000013532920

>  <ortholog_name>  (664) 
DRTS_PLAFK

>  <gene_name>  (664) 
DRTS_PLAFK

>  <affinity>  (664) 
6.28

>  <chembldocid>  (664) 
17636

>  <title>  (664) 
None

>  <reference.pubmed_id>  (664) 
14711307

>  <reference.doi>  (664) 
None

>  <reference.chembl_id>  (664) 
CHEMBL1148379

>  <reference.journal>  (664) 
J. Med. Chem.

>  <reference.year>  (664) 
2004

$$$$

     RDKit          3D

 22 23  0  0  0  0  0  0  0  0999 V2000
   -2.9438    1.0782   -2.7373 C   0  0  0  0  0  0  0  0  0  0  0  0
   -3.3625    0.7658   -1.4241 O   0  0  0  0  0  0  0  0  0  0  0  0
   -2.4370    0.0978   -0.6191 C   0  0  0  0  0  0  0  0  0  0  0  0
   -1.1621   -0.2461   -1.0828 C   0  0  0  0  0  0  0  0  0  0  0  0
   -0.2707   -0.9042   -0.2670 C   0  0  0  0  0  0  0  0  0  0  0  0
    1.0642   -1.2516   -0.7898 C   0  0  0  0  0  0  0  0  0  0  0  0
    2.0875   -0.2268   -0.5775 C   0  0  0  0  0  0  0  0  0  0  0  0
    2.6225   -0.0962    0.6972 C   0  0  0  0  0  0  0  0  0  0  0  0
    2.1438   -0.9909    1.7889 C   0  0  0  0  0  0  0  0  0  0  0  0
    3.5719    0.8219    0.9876 N   0  0  0  0  0  0  0  0  0  0  0  0
    4.0269    1.6453    0.0261 C   0  0  0  0  0  0  0  0  0  0  0  0
    5.0324    2.6329    0.2901 N   0  0  0  0  0  0  0  0  0  0  0  0
    3.4993    1.5074   -1.2046 N   0  0  0  0  0  0  0  0  0  0  0  0
    2.5696    0.6268   -1.5420 C   0  0  0  0  0  0  0  0  0  0  0  0
    2.0269    0.5016   -2.8523 N   0  0  0  0  0  0  0  0  0  0  0  0
   -0.6859   -1.2044    1.0093 C   0  0  0  0  0  0  0  0  0  0  0  0
   -1.9489   -0.8658    1.4745 C   0  0  0  0  0  0  0  0  0  0  0  0
   -2.3341   -1.1829    2.7642 O   0  0  0  0  0  0  0  0  0  0  0  0
   -1.4016   -1.8590    3.5832 C   0  0  0  0  0  0  0  0  0  0  0  0
   -2.8276   -0.2074    0.6438 C   0  0  0  0  0  0  0  0  0  0  0  0
   -4.0805    0.1125    1.1488 O   0  0  0  0  0  0  0  0  0  0  0  0
   -5.1907   -0.7552    1.0437 C   0  0  0  0  0  0  0  0  0  0  0  0
  1  2  1  0
  2  3  1  0
  3  4  2  0
  4  5  1  0
  5  6  1  0
  6  7  1  0
  7  8  2  0
  8  9  1  0
  8 10  1  0
 10 11  2  0
 11 12  1  0
 11 13  1  0
 13 14  2  0
 14 15  1  0
  5 16  2  0
 16 17  1  0
 17 18  1  0
 18 19  1  0
 17 20  2  0
 20 21  1  0
 21 22  1  0
 20  3  1  0
 14  7  1  0
M  END
>  <zinc_id>  (665) 
ZINC000013532920

>  <ortholog_name>  (665) 
DRTS_PLAFK

>  <gene_name>  (665) 
DRTS_PLAFK

>  <affinity>  (665) 
6.12

>  <chembldocid>  (665) 
17636

>  <title>  (665) 
None

>  <reference.pubmed_id>  (665) 
14711307

>  <reference.doi>  (665) 
None

>  <reference.chembl_id>  (665) 
CHEMBL1148379

>  <reference.journal>  (665) 
J. Med. Chem.

>  <reference.year>  (665) 
2004

$$$$

     RDKit          3D

 23 24  0  0  0  0  0  0  0  0999 V2000
    2.5087   -0.1822    2.7011 C   0  0  0  0  0  0  0  0  0  0  0  0
    1.9340    0.7838    1.6883 C   0  0  0  0  0  0  0  0  0  0  0  0
    2.4514    0.4049    0.3334 C   0  0  0  0  0  0  0  0  0  0  0  0
    3.4211    1.1236   -0.2513 N   0  0  0  0  0  0  0  0  0  0  0  0
    3.9387    0.8670   -1.4459 C   0  0  0  0  0  0  0  0  0  0  0  0
    4.9799    1.6665   -2.0386 N   0  0  0  0  0  0  0  0  0  0  0  0
    3.4289   -0.2121   -2.1031 N   0  0  0  0  0  0  0  0  0  0  0  0
    2.4577   -0.9807   -1.5834 C   0  0  0  0  0  0  0  0  0  0  0  0
    1.9641   -2.1125   -2.3364 N   0  0  0  0  0  0  0  0  0  0  0  0
    1.9471   -0.6824   -0.3433 C   0  0  0  0  0  0  0  0  0  0  0  0
    0.8855   -1.4795    0.2847 C   0  0  0  0  0  0  0  0  0  0  0  0
   -0.4412   -0.8593    0.2440 C   0  0  0  0  0  0  0  0  0  0  0  0
   -0.9050    0.0538    1.1540 C   0  0  0  0  0  0  0  0  0  0  0  0
   -2.1646    0.5692    1.0288 C   0  0  0  0  0  0  0  0  0  0  0  0
   -2.6924    1.5094    1.9334 O   0  0  0  0  0  0  0  0  0  0  0  0
   -1.8066    1.8894    2.9888 C   0  0  0  0  0  0  0  0  0  0  0  0
   -3.0125    0.1863   -0.0190 C   0  0  0  0  0  0  0  0  0  0  0  0
   -4.2856    0.7348   -0.1065 O   0  0  0  0  0  0  0  0  0  0  0  0
   -4.5630    1.9217   -0.8239 C   0  0  0  0  0  0  0  0  0  0  0  0
   -2.5468   -0.7323   -0.9355 C   0  0  0  0  0  0  0  0  0  0  0  0
   -3.3450   -1.1442   -1.9893 O   0  0  0  0  0  0  0  0  0  0  0  0
   -2.8625   -2.1001   -2.9454 C   0  0  0  0  0  0  0  0  0  0  0  0
   -1.2921   -1.2252   -0.7836 C   0  0  0  0  0  0  0  0  0  0  0  0
  1  2  1  0
  2  3  1  0
  3  4  2  0
  4  5  1  0
  5  6  1  0
  5  7  2  0
  7  8  1  0
  8  9  1  0
  8 10  2  0
 10 11  1  0
 11 12  1  0
 12 13  2  0
 13 14  1  0
 14 15  1  0
 15 16  1  0
 14 17  2  0
 17 18  1  0
 18 19  1  0
 17 20  1  0
 20 21  1  0
 21 22  1  0
 20 23  2  0
 10  3  1  0
 23 12  1  0
M  END
>  <zinc_id>  (666) 
ZINC000013532925

>  <ortholog_name>  (666) 
DRTS_PLAFK

>  <gene_name>  (666) 
DRTS_PLAFK

>  <affinity>  (666) 
6.93

>  <chembldocid>  (666) 
17636

>  <title>  (666) 
None

>  <reference.pubmed_id>  (666) 
14711307

>  <reference.doi>  (666) 
None

>  <reference.chembl_id>  (666) 
CHEMBL1148379

>  <reference.journal>  (666) 
J. Med. Chem.

>  <reference.year>  (666) 
2004

$$$$

     RDKit          3D

 23 24  0  0  0  0  0  0  0  0999 V2000
    2.5087   -0.1822    2.7011 C   0  0  0  0  0  0  0  0  0  0  0  0
    1.9340    0.7838    1.6883 C   0  0  0  0  0  0  0  0  0  0  0  0
    2.4514    0.4049    0.3334 C   0  0  0  0  0  0  0  0  0  0  0  0
    3.4211    1.1236   -0.2513 N   0  0  0  0  0  0  0  0  0  0  0  0
    3.9387    0.8670   -1.4459 C   0  0  0  0  0  0  0  0  0  0  0  0
    4.9799    1.6665   -2.0386 N   0  0  0  0  0  0  0  0  0  0  0  0
    3.4289   -0.2121   -2.1031 N   0  0  0  0  0  0  0  0  0  0  0  0
    2.4577   -0.9807   -1.5834 C   0  0  0  0  0  0  0  0  0  0  0  0
    1.9641   -2.1125   -2.3364 N   0  0  0  0  0  0  0  0  0  0  0  0
    1.9471   -0.6824   -0.3433 C   0  0  0  0  0  0  0  0  0  0  0  0
    0.8855   -1.4795    0.2847 C   0  0  0  0  0  0  0  0  0  0  0  0
   -0.4412   -0.8593    0.2440 C   0  0  0  0  0  0  0  0  0  0  0  0
   -0.9050    0.0538    1.1540 C   0  0  0  0  0  0  0  0  0  0  0  0
   -2.1646    0.5692    1.0288 C   0  0  0  0  0  0  0  0  0  0  0  0
   -2.6924    1.5094    1.9334 O   0  0  0  0  0  0  0  0  0  0  0  0
   -1.8066    1.8894    2.9888 C   0  0  0  0  0  0  0  0  0  0  0  0
   -3.0125    0.1863   -0.0190 C   0  0  0  0  0  0  0  0  0  0  0  0
   -4.2856    0.7348   -0.1065 O   0  0  0  0  0  0  0  0  0  0  0  0
   -4.5630    1.9217   -0.8239 C   0  0  0  0  0  0  0  0  0  0  0  0
   -2.5468   -0.7323   -0.9355 C   0  0  0  0  0  0  0  0  0  0  0  0
   -3.3450   -1.1442   -1.9893 O   0  0  0  0  0  0  0  0  0  0  0  0
   -2.8625   -2.1001   -2.9454 C   0  0  0  0  0  0  0  0  0  0  0  0
   -1.2921   -1.2252   -0.7836 C   0  0  0  0  0  0  0  0  0  0  0  0
  1  2  1  0
  2  3  1  0
  3  4  2  0
  4  5  1  0
  5  6  1  0
  5  7  2  0
  7  8  1  0
  8  9  1  0
  8 10  2  0
 10 11  1  0
 11 12  1  0
 12 13  2  0
 13 14  1  0
 14 15  1  0
 15 16  1  0
 14 17  2  0
 17 18  1  0
 18 19  1  0
 17 20  1  0
 20 21  1  0
 21 22  1  0
 20 23  2  0
 10  3  1  0
 23 12  1  0
M  END
>  <zinc_id>  (667) 
ZINC000013532925

>  <ortholog_name>  (667) 
DRTS_PLAFK

>  <gene_name>  (667) 
DRTS_PLAFK

>  <affinity>  (667) 
5.62

>  <chembldocid>  (667) 
17636

>  <title>  (667) 
None

>  <reference.pubmed_id>  (667) 
14711307

>  <reference.doi>  (667) 
None

>  <reference.chembl_id>  (667) 
CHEMBL1148379

>  <reference.journal>  (667) 
J. Med. Chem.

>  <reference.year>  (667) 
2004

$$$$

     RDKit          3D

 23 24  0  0  0  0  0  0  0  0999 V2000
    2.5087   -0.1822    2.7011 C   0  0  0  0  0  0  0  0  0  0  0  0
    1.9340    0.7838    1.6883 C   0  0  0  0  0  0  0  0  0  0  0  0
    2.4514    0.4049    0.3334 C   0  0  0  0  0  0  0  0  0  0  0  0
    3.4211    1.1236   -0.2513 N   0  0  0  0  0  0  0  0  0  0  0  0
    3.9387    0.8670   -1.4459 C   0  0  0  0  0  0  0  0  0  0  0  0
    4.9799    1.6665   -2.0386 N   0  0  0  0  0  0  0  0  0  0  0  0
    3.4289   -0.2121   -2.1031 N   0  0  0  0  0  0  0  0  0  0  0  0
    2.4577   -0.9807   -1.5834 C   0  0  0  0  0  0  0  0  0  0  0  0
    1.9641   -2.1125   -2.3364 N   0  0  0  0  0  0  0  0  0  0  0  0
    1.9471   -0.6824   -0.3433 C   0  0  0  0  0  0  0  0  0  0  0  0
    0.8855   -1.4795    0.2847 C   0  0  0  0  0  0  0  0  0  0  0  0
   -0.4412   -0.8593    0.2440 C   0  0  0  0  0  0  0  0  0  0  0  0
   -0.9050    0.0538    1.1540 C   0  0  0  0  0  0  0  0  0  0  0  0
   -2.1646    0.5692    1.0288 C   0  0  0  0  0  0  0  0  0  0  0  0
   -2.6924    1.5094    1.9334 O   0  0  0  0  0  0  0  0  0  0  0  0
   -1.8066    1.8894    2.9888 C   0  0  0  0  0  0  0  0  0  0  0  0
   -3.0125    0.1863   -0.0190 C   0  0  0  0  0  0  0  0  0  0  0  0
   -4.2856    0.7348   -0.1065 O   0  0  0  0  0  0  0  0  0  0  0  0
   -4.5630    1.9217   -0.8239 C   0  0  0  0  0  0  0  0  0  0  0  0
   -2.5468   -0.7323   -0.9355 C   0  0  0  0  0  0  0  0  0  0  0  0
   -3.3450   -1.1442   -1.9893 O   0  0  0  0  0  0  0  0  0  0  0  0
   -2.8625   -2.1001   -2.9454 C   0  0  0  0  0  0  0  0  0  0  0  0
   -1.2921   -1.2252   -0.7836 C   0  0  0  0  0  0  0  0  0  0  0  0
  1  2  1  0
  2  3  1  0
  3  4  2  0
  4  5  1  0
  5  6  1  0
  5  7  2  0
  7  8  1  0
  8  9  1  0
  8 10  2  0
 10 11  1  0
 11 12  1  0
 12 13  2  0
 13 14  1  0
 14 15  1  0
 15 16  1  0
 14 17  2  0
 17 18  1  0
 18 19  1  0
 17 20  1  0
 20 21  1  0
 21 22  1  0
 20 23  2  0
 10  3  1  0
 23 12  1  0
M  END
>  <zinc_id>  (668) 
ZINC000013532925

>  <ortholog_name>  (668) 
DRTS_PLAFK

>  <gene_name>  (668) 
DRTS_PLAFK

>  <affinity>  (668) 
6.60

>  <chembldocid>  (668) 
17636

>  <title>  (668) 
None

>  <reference.pubmed_id>  (668) 
14711307

>  <reference.doi>  (668) 
None

>  <reference.chembl_id>  (668) 
CHEMBL1148379

>  <reference.journal>  (668) 
J. Med. Chem.

>  <reference.year>  (668) 
2004

$$$$

     RDKit          3D

 23 24  0  0  0  0  0  0  0  0999 V2000
    2.5087   -0.1822    2.7011 C   0  0  0  0  0  0  0  0  0  0  0  0
    1.9340    0.7838    1.6883 C   0  0  0  0  0  0  0  0  0  0  0  0
    2.4514    0.4049    0.3334 C   0  0  0  0  0  0  0  0  0  0  0  0
    3.4211    1.1236   -0.2513 N   0  0  0  0  0  0  0  0  0  0  0  0
    3.9387    0.8670   -1.4459 C   0  0  0  0  0  0  0  0  0  0  0  0
    4.9799    1.6665   -2.0386 N   0  0  0  0  0  0  0  0  0  0  0  0
    3.4289   -0.2121   -2.1031 N   0  0  0  0  0  0  0  0  0  0  0  0
    2.4577   -0.9807   -1.5834 C   0  0  0  0  0  0  0  0  0  0  0  0
    1.9641   -2.1125   -2.3364 N   0  0  0  0  0  0  0  0  0  0  0  0
    1.9471   -0.6824   -0.3433 C   0  0  0  0  0  0  0  0  0  0  0  0
    0.8855   -1.4795    0.2847 C   0  0  0  0  0  0  0  0  0  0  0  0
   -0.4412   -0.8593    0.2440 C   0  0  0  0  0  0  0  0  0  0  0  0
   -0.9050    0.0538    1.1540 C   0  0  0  0  0  0  0  0  0  0  0  0
   -2.1646    0.5692    1.0288 C   0  0  0  0  0  0  0  0  0  0  0  0
   -2.6924    1.5094    1.9334 O   0  0  0  0  0  0  0  0  0  0  0  0
   -1.8066    1.8894    2.9888 C   0  0  0  0  0  0  0  0  0  0  0  0
   -3.0125    0.1863   -0.0190 C   0  0  0  0  0  0  0  0  0  0  0  0
   -4.2856    0.7348   -0.1065 O   0  0  0  0  0  0  0  0  0  0  0  0
   -4.5630    1.9217   -0.8239 C   0  0  0  0  0  0  0  0  0  0  0  0
   -2.5468   -0.7323   -0.9355 C   0  0  0  0  0  0  0  0  0  0  0  0
   -3.3450   -1.1442   -1.9893 O   0  0  0  0  0  0  0  0  0  0  0  0
   -2.8625   -2.1001   -2.9454 C   0  0  0  0  0  0  0  0  0  0  0  0
   -1.2921   -1.2252   -0.7836 C   0  0  0  0  0  0  0  0  0  0  0  0
  1  2  1  0
  2  3  1  0
  3  4  2  0
  4  5  1  0
  5  6  1  0
  5  7  2  0
  7  8  1  0
  8  9  1  0
  8 10  2  0
 10 11  1  0
 11 12  1  0
 12 13  2  0
 13 14  1  0
 14 15  1  0
 15 16  1  0
 14 17  2  0
 17 18  1  0
 18 19  1  0
 17 20  1  0
 20 21  1  0
 21 22  1  0
 20 23  2  0
 10  3  1  0
 23 12  1  0
M  END
>  <zinc_id>  (669) 
ZINC000013532925

>  <ortholog_name>  (669) 
DRTS_PLAFK

>  <gene_name>  (669) 
DRTS_PLAFK

>  <affinity>  (669) 
6.44

>  <chembldocid>  (669) 
17636

>  <title>  (669) 
None

>  <reference.pubmed_id>  (669) 
14711307

>  <reference.doi>  (669) 
None

>  <reference.chembl_id>  (669) 
CHEMBL1148379

>  <reference.journal>  (669) 
J. Med. Chem.

>  <reference.year>  (669) 
2004

$$$$

     RDKit          3D

 23 24  0  0  0  0  0  0  0  0999 V2000
    2.5087   -0.1822    2.7011 C   0  0  0  0  0  0  0  0  0  0  0  0
    1.9340    0.7838    1.6883 C   0  0  0  0  0  0  0  0  0  0  0  0
    2.4514    0.4049    0.3334 C   0  0  0  0  0  0  0  0  0  0  0  0
    3.4211    1.1236   -0.2513 N   0  0  0  0  0  0  0  0  0  0  0  0
    3.9387    0.8670   -1.4459 C   0  0  0  0  0  0  0  0  0  0  0  0
    4.9799    1.6665   -2.0386 N   0  0  0  0  0  0  0  0  0  0  0  0
    3.4289   -0.2121   -2.1031 N   0  0  0  0  0  0  0  0  0  0  0  0
    2.4577   -0.9807   -1.5834 C   0  0  0  0  0  0  0  0  0  0  0  0
    1.9641   -2.1125   -2.3364 N   0  0  0  0  0  0  0  0  0  0  0  0
    1.9471   -0.6824   -0.3433 C   0  0  0  0  0  0  0  0  0  0  0  0
    0.8855   -1.4795    0.2847 C   0  0  0  0  0  0  0  0  0  0  0  0
   -0.4412   -0.8593    0.2440 C   0  0  0  0  0  0  0  0  0  0  0  0
   -0.9050    0.0538    1.1540 C   0  0  0  0  0  0  0  0  0  0  0  0
   -2.1646    0.5692    1.0288 C   0  0  0  0  0  0  0  0  0  0  0  0
   -2.6924    1.5094    1.9334 O   0  0  0  0  0  0  0  0  0  0  0  0
   -1.8066    1.8894    2.9888 C   0  0  0  0  0  0  0  0  0  0  0  0
   -3.0125    0.1863   -0.0190 C   0  0  0  0  0  0  0  0  0  0  0  0
   -4.2856    0.7348   -0.1065 O   0  0  0  0  0  0  0  0  0  0  0  0
   -4.5630    1.9217   -0.8239 C   0  0  0  0  0  0  0  0  0  0  0  0
   -2.5468   -0.7323   -0.9355 C   0  0  0  0  0  0  0  0  0  0  0  0
   -3.3450   -1.1442   -1.9893 O   0  0  0  0  0  0  0  0  0  0  0  0
   -2.8625   -2.1001   -2.9454 C   0  0  0  0  0  0  0  0  0  0  0  0
   -1.2921   -1.2252   -0.7836 C   0  0  0  0  0  0  0  0  0  0  0  0
  1  2  1  0
  2  3  1  0
  3  4  2  0
  4  5  1  0
  5  6  1  0
  5  7  2  0
  7  8  1  0
  8  9  1  0
  8 10  2  0
 10 11  1  0
 11 12  1  0
 12 13  2  0
 13 14  1  0
 14 15  1  0
 15 16  1  0
 14 17  2  0
 17 18  1  0
 18 19  1  0
 17 20  1  0
 20 21  1  0
 21 22  1  0
 20 23  2  0
 10  3  1  0
 23 12  1  0
M  END
>  <zinc_id>  (670) 
ZINC000013532925

>  <ortholog_name>  (670) 
DRTS_PLAFK

>  <gene_name>  (670) 
DRTS_PLAFK

>  <affinity>  (670) 
8.37

>  <chembldocid>  (670) 
17636

>  <title>  (670) 
None

>  <reference.pubmed_id>  (670) 
14711307

>  <reference.doi>  (670) 
None

>  <reference.chembl_id>  (670) 
CHEMBL1148379

>  <reference.journal>  (670) 
J. Med. Chem.

>  <reference.year>  (670) 
2004

$$$$

     RDKit          3D

 23 24  0  0  0  0  0  0  0  0999 V2000
    2.5087   -0.1822    2.7011 C   0  0  0  0  0  0  0  0  0  0  0  0
    1.9340    0.7838    1.6883 C   0  0  0  0  0  0  0  0  0  0  0  0
    2.4514    0.4049    0.3334 C   0  0  0  0  0  0  0  0  0  0  0  0
    3.4211    1.1236   -0.2513 N   0  0  0  0  0  0  0  0  0  0  0  0
    3.9387    0.8670   -1.4459 C   0  0  0  0  0  0  0  0  0  0  0  0
    4.9799    1.6665   -2.0386 N   0  0  0  0  0  0  0  0  0  0  0  0
    3.4289   -0.2121   -2.1031 N   0  0  0  0  0  0  0  0  0  0  0  0
    2.4577   -0.9807   -1.5834 C   0  0  0  0  0  0  0  0  0  0  0  0
    1.9641   -2.1125   -2.3364 N   0  0  0  0  0  0  0  0  0  0  0  0
    1.9471   -0.6824   -0.3433 C   0  0  0  0  0  0  0  0  0  0  0  0
    0.8855   -1.4795    0.2847 C   0  0  0  0  0  0  0  0  0  0  0  0
   -0.4412   -0.8593    0.2440 C   0  0  0  0  0  0  0  0  0  0  0  0
   -0.9050    0.0538    1.1540 C   0  0  0  0  0  0  0  0  0  0  0  0
   -2.1646    0.5692    1.0288 C   0  0  0  0  0  0  0  0  0  0  0  0
   -2.6924    1.5094    1.9334 O   0  0  0  0  0  0  0  0  0  0  0  0
   -1.8066    1.8894    2.9888 C   0  0  0  0  0  0  0  0  0  0  0  0
   -3.0125    0.1863   -0.0190 C   0  0  0  0  0  0  0  0  0  0  0  0
   -4.2856    0.7348   -0.1065 O   0  0  0  0  0  0  0  0  0  0  0  0
   -4.5630    1.9217   -0.8239 C   0  0  0  0  0  0  0  0  0  0  0  0
   -2.5468   -0.7323   -0.9355 C   0  0  0  0  0  0  0  0  0  0  0  0
   -3.3450   -1.1442   -1.9893 O   0  0  0  0  0  0  0  0  0  0  0  0
   -2.8625   -2.1001   -2.9454 C   0  0  0  0  0  0  0  0  0  0  0  0
   -1.2921   -1.2252   -0.7836 C   0  0  0  0  0  0  0  0  0  0  0  0
  1  2  1  0
  2  3  1  0
  3  4  2  0
  4  5  1  0
  5  6  1  0
  5  7  2  0
  7  8  1  0
  8  9  1  0
  8 10  2  0
 10 11  1  0
 11 12  1  0
 12 13  2  0
 13 14  1  0
 14 15  1  0
 15 16  1  0
 14 17  2  0
 17 18  1  0
 18 19  1  0
 17 20  1  0
 20 21  1  0
 21 22  1  0
 20 23  2  0
 10  3  1  0
 23 12  1  0
M  END
>  <zinc_id>  (671) 
ZINC000013532925

>  <ortholog_name>  (671) 
DRTS_PLAFK

>  <gene_name>  (671) 
DRTS_PLAFK

>  <affinity>  (671) 
6.33

>  <chembldocid>  (671) 
17636

>  <title>  (671) 
None

>  <reference.pubmed_id>  (671) 
14711307

>  <reference.doi>  (671) 
None

>  <reference.chembl_id>  (671) 
CHEMBL1148379

>  <reference.journal>  (671) 
J. Med. Chem.

>  <reference.year>  (671) 
2004

$$$$

     RDKit          3D

 23 24  0  0  0  0  0  0  0  0999 V2000
    2.5087   -0.1822    2.7011 C   0  0  0  0  0  0  0  0  0  0  0  0
    1.9340    0.7838    1.6883 C   0  0  0  0  0  0  0  0  0  0  0  0
    2.4514    0.4049    0.3334 C   0  0  0  0  0  0  0  0  0  0  0  0
    3.4211    1.1236   -0.2513 N   0  0  0  0  0  0  0  0  0  0  0  0
    3.9387    0.8670   -1.4459 C   0  0  0  0  0  0  0  0  0  0  0  0
    4.9799    1.6665   -2.0386 N   0  0  0  0  0  0  0  0  0  0  0  0
    3.4289   -0.2121   -2.1031 N   0  0  0  0  0  0  0  0  0  0  0  0
    2.4577   -0.9807   -1.5834 C   0  0  0  0  0  0  0  0  0  0  0  0
    1.9641   -2.1125   -2.3364 N   0  0  0  0  0  0  0  0  0  0  0  0
    1.9471   -0.6824   -0.3433 C   0  0  0  0  0  0  0  0  0  0  0  0
    0.8855   -1.4795    0.2847 C   0  0  0  0  0  0  0  0  0  0  0  0
   -0.4412   -0.8593    0.2440 C   0  0  0  0  0  0  0  0  0  0  0  0
   -0.9050    0.0538    1.1540 C   0  0  0  0  0  0  0  0  0  0  0  0
   -2.1646    0.5692    1.0288 C   0  0  0  0  0  0  0  0  0  0  0  0
   -2.6924    1.5094    1.9334 O   0  0  0  0  0  0  0  0  0  0  0  0
   -1.8066    1.8894    2.9888 C   0  0  0  0  0  0  0  0  0  0  0  0
   -3.0125    0.1863   -0.0190 C   0  0  0  0  0  0  0  0  0  0  0  0
   -4.2856    0.7348   -0.1065 O   0  0  0  0  0  0  0  0  0  0  0  0
   -4.5630    1.9217   -0.8239 C   0  0  0  0  0  0  0  0  0  0  0  0
   -2.5468   -0.7323   -0.9355 C   0  0  0  0  0  0  0  0  0  0  0  0
   -3.3450   -1.1442   -1.9893 O   0  0  0  0  0  0  0  0  0  0  0  0
   -2.8625   -2.1001   -2.9454 C   0  0  0  0  0  0  0  0  0  0  0  0
   -1.2921   -1.2252   -0.7836 C   0  0  0  0  0  0  0  0  0  0  0  0
  1  2  1  0
  2  3  1  0
  3  4  2  0
  4  5  1  0
  5  6  1  0
  5  7  2  0
  7  8  1  0
  8  9  1  0
  8 10  2  0
 10 11  1  0
 11 12  1  0
 12 13  2  0
 13 14  1  0
 14 15  1  0
 15 16  1  0
 14 17  2  0
 17 18  1  0
 18 19  1  0
 17 20  1  0
 20 21  1  0
 21 22  1  0
 20 23  2  0
 10  3  1  0
 23 12  1  0
M  END
>  <zinc_id>  (672) 
ZINC000013532925

>  <ortholog_name>  (672) 
DRTS_PLAFK

>  <gene_name>  (672) 
DRTS_PLAFK

>  <affinity>  (672) 
6.16

>  <chembldocid>  (672) 
17636

>  <title>  (672) 
None

>  <reference.pubmed_id>  (672) 
14711307

>  <reference.doi>  (672) 
None

>  <reference.chembl_id>  (672) 
CHEMBL1148379

>  <reference.journal>  (672) 
J. Med. Chem.

>  <reference.year>  (672) 
2004

$$$$

     RDKit          3D

 26 28  0  0  0  0  0  0  0  0999 V2000
    0.5992    1.8766   -3.2734 C   0  0  0  0  0  0  0  0  0  0  0  0
    1.3271    1.2213   -2.2514 O   0  0  0  0  0  0  0  0  0  0  0  0
    0.7303    1.0143   -1.0179 C   0  0  0  0  0  0  0  0  0  0  0  0
   -0.5563    1.4381   -0.7803 C   0  0  0  0  0  0  0  0  0  0  0  0
   -1.1923    1.2575    0.4231 C   0  0  0  0  0  0  0  0  0  0  0  0
   -2.5562    1.7343    0.6014 C   0  0  0  0  0  0  0  0  0  0  0  0
   -3.6182    0.7857    0.2632 C   0  0  0  0  0  0  0  0  0  0  0  0
   -3.4397   -0.4928   -0.1992 C   0  0  0  0  0  0  0  0  0  0  0  0
   -2.0713   -0.9865   -0.3832 C   0  0  0  0  0  0  0  0  0  0  0  0
   -4.4856   -1.2949   -0.4845 N   0  0  0  0  0  0  0  0  0  0  0  0
   -5.7399   -0.8609   -0.3225 C   0  0  0  0  0  0  0  0  0  0  0  0
   -6.8838   -1.6505   -0.6029 N   0  0  0  0  0  0  0  0  0  0  0  0
   -5.9663    0.4027    0.1348 N   0  0  0  0  0  0  0  0  0  0  0  0
   -4.9264    1.2128    0.4230 C   0  0  0  0  0  0  0  0  0  0  0  0
   -5.2439    2.5194    0.8961 N   0  0  0  0  0  0  0  0  0  0  0  0
   -0.5165    0.6254    1.4378 C   0  0  0  0  0  0  0  0  0  0  0  0
    0.7740    0.1971    1.2085 C   0  0  0  0  0  0  0  0  0  0  0  0
    1.4040    0.3842   -0.0061 C   0  0  0  0  0  0  0  0  0  0  0  0
    2.6977   -0.0534   -0.2132 O   0  0  0  0  0  0  0  0  0  0  0  0
    3.3924   -0.7121    0.8550 C   0  0  0  0  0  0  0  0  0  0  0  0
    4.7558   -1.0874    0.3979 C   0  0  0  0  0  0  0  0  0  0  0  0
    5.8269   -0.2293    0.5504 C   0  0  0  0  0  0  0  0  0  0  0  0
    7.1040   -0.5478    0.1369 C   0  0  0  0  0  0  0  0  0  0  0  0
    7.3259   -1.7911   -0.4620 C   0  0  0  0  0  0  0  0  0  0  0  0
    6.2654   -2.6502   -0.6171 C   0  0  0  0  0  0  0  0  0  0  0  0
    4.9940   -2.3126   -0.1964 C   0  0  0  0  0  0  0  0  0  0  0  0
  1  2  1  0
  2  3  1  0
  3  4  2  0
  4  5  1  0
  5  6  1  0
  6  7  1  0
  7  8  2  0
  8  9  1  0
  8 10  1  0
 10 11  2  0
 11 12  1  0
 11 13  1  0
 13 14  2  0
 14 15  1  0
  5 16  2  0
 16 17  1  0
 17 18  2  0
 18 19  1  0
 19 20  1  0
 20 21  1  0
 21 22  2  0
 22 23  1  0
 23 24  2  0
 24 25  1  0
 25 26  2  0
 18  3  1  0
 26 21  1  0
 14  7  1  0
M  END
>  <zinc_id>  (673) 
ZINC000013532930

>  <ortholog_name>  (673) 
DRTS_PLAFK

>  <gene_name>  (673) 
DRTS_PLAFK

>  <affinity>  (673) 
5.99

>  <chembldocid>  (673) 
17636

>  <title>  (673) 
None

>  <reference.pubmed_id>  (673) 
14711307

>  <reference.doi>  (673) 
None

>  <reference.chembl_id>  (673) 
CHEMBL1148379

>  <reference.journal>  (673) 
J. Med. Chem.

>  <reference.year>  (673) 
2004

$$$$

     RDKit          3D

 26 28  0  0  0  0  0  0  0  0999 V2000
    0.5992    1.8766   -3.2734 C   0  0  0  0  0  0  0  0  0  0  0  0
    1.3271    1.2213   -2.2514 O   0  0  0  0  0  0  0  0  0  0  0  0
    0.7303    1.0143   -1.0179 C   0  0  0  0  0  0  0  0  0  0  0  0
   -0.5563    1.4381   -0.7803 C   0  0  0  0  0  0  0  0  0  0  0  0
   -1.1923    1.2575    0.4231 C   0  0  0  0  0  0  0  0  0  0  0  0
   -2.5562    1.7343    0.6014 C   0  0  0  0  0  0  0  0  0  0  0  0
   -3.6182    0.7857    0.2632 C   0  0  0  0  0  0  0  0  0  0  0  0
   -3.4397   -0.4928   -0.1992 C   0  0  0  0  0  0  0  0  0  0  0  0
   -2.0713   -0.9865   -0.3832 C   0  0  0  0  0  0  0  0  0  0  0  0
   -4.4856   -1.2949   -0.4845 N   0  0  0  0  0  0  0  0  0  0  0  0
   -5.7399   -0.8609   -0.3225 C   0  0  0  0  0  0  0  0  0  0  0  0
   -6.8838   -1.6505   -0.6029 N   0  0  0  0  0  0  0  0  0  0  0  0
   -5.9663    0.4027    0.1348 N   0  0  0  0  0  0  0  0  0  0  0  0
   -4.9264    1.2128    0.4230 C   0  0  0  0  0  0  0  0  0  0  0  0
   -5.2439    2.5194    0.8961 N   0  0  0  0  0  0  0  0  0  0  0  0
   -0.5165    0.6254    1.4378 C   0  0  0  0  0  0  0  0  0  0  0  0
    0.7740    0.1971    1.2085 C   0  0  0  0  0  0  0  0  0  0  0  0
    1.4040    0.3842   -0.0061 C   0  0  0  0  0  0  0  0  0  0  0  0
    2.6977   -0.0534   -0.2132 O   0  0  0  0  0  0  0  0  0  0  0  0
    3.3924   -0.7121    0.8550 C   0  0  0  0  0  0  0  0  0  0  0  0
    4.7558   -1.0874    0.3979 C   0  0  0  0  0  0  0  0  0  0  0  0
    5.8269   -0.2293    0.5504 C   0  0  0  0  0  0  0  0  0  0  0  0
    7.1040   -0.5478    0.1369 C   0  0  0  0  0  0  0  0  0  0  0  0
    7.3259   -1.7911   -0.4620 C   0  0  0  0  0  0  0  0  0  0  0  0
    6.2654   -2.6502   -0.6171 C   0  0  0  0  0  0  0  0  0  0  0  0
    4.9940   -2.3126   -0.1964 C   0  0  0  0  0  0  0  0  0  0  0  0
  1  2  1  0
  2  3  1  0
  3  4  2  0
  4  5  1  0
  5  6  1  0
  6  7  1  0
  7  8  2  0
  8  9  1  0
  8 10  1  0
 10 11  2  0
 11 12  1  0
 11 13  1  0
 13 14  2  0
 14 15  1  0
  5 16  2  0
 16 17  1  0
 17 18  2  0
 18 19  1  0
 19 20  1  0
 20 21  1  0
 21 22  2  0
 22 23  1  0
 23 24  2  0
 24 25  1  0
 25 26  2  0
 18  3  1  0
 26 21  1  0
 14  7  1  0
M  END
>  <zinc_id>  (674) 
ZINC000013532930

>  <ortholog_name>  (674) 
DRTS_PLAFK

>  <gene_name>  (674) 
DRTS_PLAFK

>  <affinity>  (674) 
6.74

>  <chembldocid>  (674) 
17636

>  <title>  (674) 
None

>  <reference.pubmed_id>  (674) 
14711307

>  <reference.doi>  (674) 
None

>  <reference.chembl_id>  (674) 
CHEMBL1148379

>  <reference.journal>  (674) 
J. Med. Chem.

>  <reference.year>  (674) 
2004

$$$$

     RDKit          3D

 26 28  0  0  0  0  0  0  0  0999 V2000
    0.5992    1.8766   -3.2734 C   0  0  0  0  0  0  0  0  0  0  0  0
    1.3271    1.2213   -2.2514 O   0  0  0  0  0  0  0  0  0  0  0  0
    0.7303    1.0143   -1.0179 C   0  0  0  0  0  0  0  0  0  0  0  0
   -0.5563    1.4381   -0.7803 C   0  0  0  0  0  0  0  0  0  0  0  0
   -1.1923    1.2575    0.4231 C   0  0  0  0  0  0  0  0  0  0  0  0
   -2.5562    1.7343    0.6014 C   0  0  0  0  0  0  0  0  0  0  0  0
   -3.6182    0.7857    0.2632 C   0  0  0  0  0  0  0  0  0  0  0  0
   -3.4397   -0.4928   -0.1992 C   0  0  0  0  0  0  0  0  0  0  0  0
   -2.0713   -0.9865   -0.3832 C   0  0  0  0  0  0  0  0  0  0  0  0
   -4.4856   -1.2949   -0.4845 N   0  0  0  0  0  0  0  0  0  0  0  0
   -5.7399   -0.8609   -0.3225 C   0  0  0  0  0  0  0  0  0  0  0  0
   -6.8838   -1.6505   -0.6029 N   0  0  0  0  0  0  0  0  0  0  0  0
   -5.9663    0.4027    0.1348 N   0  0  0  0  0  0  0  0  0  0  0  0
   -4.9264    1.2128    0.4230 C   0  0  0  0  0  0  0  0  0  0  0  0
   -5.2439    2.5194    0.8961 N   0  0  0  0  0  0  0  0  0  0  0  0
   -0.5165    0.6254    1.4378 C   0  0  0  0  0  0  0  0  0  0  0  0
    0.7740    0.1971    1.2085 C   0  0  0  0  0  0  0  0  0  0  0  0
    1.4040    0.3842   -0.0061 C   0  0  0  0  0  0  0  0  0  0  0  0
    2.6977   -0.0534   -0.2132 O   0  0  0  0  0  0  0  0  0  0  0  0
    3.3924   -0.7121    0.8550 C   0  0  0  0  0  0  0  0  0  0  0  0
    4.7558   -1.0874    0.3979 C   0  0  0  0  0  0  0  0  0  0  0  0
    5.8269   -0.2293    0.5504 C   0  0  0  0  0  0  0  0  0  0  0  0
    7.1040   -0.5478    0.1369 C   0  0  0  0  0  0  0  0  0  0  0  0
    7.3259   -1.7911   -0.4620 C   0  0  0  0  0  0  0  0  0  0  0  0
    6.2654   -2.6502   -0.6171 C   0  0  0  0  0  0  0  0  0  0  0  0
    4.9940   -2.3126   -0.1964 C   0  0  0  0  0  0  0  0  0  0  0  0
  1  2  1  0
  2  3  1  0
  3  4  2  0
  4  5  1  0
  5  6  1  0
  6  7  1  0
  7  8  2  0
  8  9  1  0
  8 10  1  0
 10 11  2  0
 11 12  1  0
 11 13  1  0
 13 14  2  0
 14 15  1  0
  5 16  2  0
 16 17  1  0
 17 18  2  0
 18 19  1  0
 19 20  1  0
 20 21  1  0
 21 22  2  0
 22 23  1  0
 23 24  2  0
 24 25  1  0
 25 26  2  0
 18  3  1  0
 26 21  1  0
 14  7  1  0
M  END
>  <zinc_id>  (675) 
ZINC000013532930

>  <ortholog_name>  (675) 
DRTS_PLAFK

>  <gene_name>  (675) 
DRTS_PLAFK

>  <affinity>  (675) 
7.70

>  <chembldocid>  (675) 
17636

>  <title>  (675) 
None

>  <reference.pubmed_id>  (675) 
14711307

>  <reference.doi>  (675) 
None

>  <reference.chembl_id>  (675) 
CHEMBL1148379

>  <reference.journal>  (675) 
J. Med. Chem.

>  <reference.year>  (675) 
2004

$$$$

     RDKit          3D

 26 28  0  0  0  0  0  0  0  0999 V2000
    0.5992    1.8766   -3.2734 C   0  0  0  0  0  0  0  0  0  0  0  0
    1.3271    1.2213   -2.2514 O   0  0  0  0  0  0  0  0  0  0  0  0
    0.7303    1.0143   -1.0179 C   0  0  0  0  0  0  0  0  0  0  0  0
   -0.5563    1.4381   -0.7803 C   0  0  0  0  0  0  0  0  0  0  0  0
   -1.1923    1.2575    0.4231 C   0  0  0  0  0  0  0  0  0  0  0  0
   -2.5562    1.7343    0.6014 C   0  0  0  0  0  0  0  0  0  0  0  0
   -3.6182    0.7857    0.2632 C   0  0  0  0  0  0  0  0  0  0  0  0
   -3.4397   -0.4928   -0.1992 C   0  0  0  0  0  0  0  0  0  0  0  0
   -2.0713   -0.9865   -0.3832 C   0  0  0  0  0  0  0  0  0  0  0  0
   -4.4856   -1.2949   -0.4845 N   0  0  0  0  0  0  0  0  0  0  0  0
   -5.7399   -0.8609   -0.3225 C   0  0  0  0  0  0  0  0  0  0  0  0
   -6.8838   -1.6505   -0.6029 N   0  0  0  0  0  0  0  0  0  0  0  0
   -5.9663    0.4027    0.1348 N   0  0  0  0  0  0  0  0  0  0  0  0
   -4.9264    1.2128    0.4230 C   0  0  0  0  0  0  0  0  0  0  0  0
   -5.2439    2.5194    0.8961 N   0  0  0  0  0  0  0  0  0  0  0  0
   -0.5165    0.6254    1.4378 C   0  0  0  0  0  0  0  0  0  0  0  0
    0.7740    0.1971    1.2085 C   0  0  0  0  0  0  0  0  0  0  0  0
    1.4040    0.3842   -0.0061 C   0  0  0  0  0  0  0  0  0  0  0  0
    2.6977   -0.0534   -0.2132 O   0  0  0  0  0  0  0  0  0  0  0  0
    3.3924   -0.7121    0.8550 C   0  0  0  0  0  0  0  0  0  0  0  0
    4.7558   -1.0874    0.3979 C   0  0  0  0  0  0  0  0  0  0  0  0
    5.8269   -0.2293    0.5504 C   0  0  0  0  0  0  0  0  0  0  0  0
    7.1040   -0.5478    0.1369 C   0  0  0  0  0  0  0  0  0  0  0  0
    7.3259   -1.7911   -0.4620 C   0  0  0  0  0  0  0  0  0  0  0  0
    6.2654   -2.6502   -0.6171 C   0  0  0  0  0  0  0  0  0  0  0  0
    4.9940   -2.3126   -0.1964 C   0  0  0  0  0  0  0  0  0  0  0  0
  1  2  1  0
  2  3  1  0
  3  4  2  0
  4  5  1  0
  5  6  1  0
  6  7  1  0
  7  8  2  0
  8  9  1  0
  8 10  1  0
 10 11  2  0
 11 12  1  0
 11 13  1  0
 13 14  2  0
 14 15  1  0
  5 16  2  0
 16 17  1  0
 17 18  2  0
 18 19  1  0
 19 20  1  0
 20 21  1  0
 21 22  2  0
 22 23  1  0
 23 24  2  0
 24 25  1  0
 25 26  2  0
 18  3  1  0
 26 21  1  0
 14  7  1  0
M  END
>  <zinc_id>  (676) 
ZINC000013532930

>  <ortholog_name>  (676) 
DRTS_PLAFK

>  <gene_name>  (676) 
DRTS_PLAFK

>  <affinity>  (676) 
7.70

>  <chembldocid>  (676) 
17636

>  <title>  (676) 
None

>  <reference.pubmed_id>  (676) 
14711307

>  <reference.doi>  (676) 
None

>  <reference.chembl_id>  (676) 
CHEMBL1148379

>  <reference.journal>  (676) 
J. Med. Chem.

>  <reference.year>  (676) 
2004

$$$$

     RDKit          3D

 26 28  0  0  0  0  0  0  0  0999 V2000
    0.5992    1.8766   -3.2734 C   0  0  0  0  0  0  0  0  0  0  0  0
    1.3271    1.2213   -2.2514 O   0  0  0  0  0  0  0  0  0  0  0  0
    0.7303    1.0143   -1.0179 C   0  0  0  0  0  0  0  0  0  0  0  0
   -0.5563    1.4381   -0.7803 C   0  0  0  0  0  0  0  0  0  0  0  0
   -1.1923    1.2575    0.4231 C   0  0  0  0  0  0  0  0  0  0  0  0
   -2.5562    1.7343    0.6014 C   0  0  0  0  0  0  0  0  0  0  0  0
   -3.6182    0.7857    0.2632 C   0  0  0  0  0  0  0  0  0  0  0  0
   -3.4397   -0.4928   -0.1992 C   0  0  0  0  0  0  0  0  0  0  0  0
   -2.0713   -0.9865   -0.3832 C   0  0  0  0  0  0  0  0  0  0  0  0
   -4.4856   -1.2949   -0.4845 N   0  0  0  0  0  0  0  0  0  0  0  0
   -5.7399   -0.8609   -0.3225 C   0  0  0  0  0  0  0  0  0  0  0  0
   -6.8838   -1.6505   -0.6029 N   0  0  0  0  0  0  0  0  0  0  0  0
   -5.9663    0.4027    0.1348 N   0  0  0  0  0  0  0  0  0  0  0  0
   -4.9264    1.2128    0.4230 C   0  0  0  0  0  0  0  0  0  0  0  0
   -5.2439    2.5194    0.8961 N   0  0  0  0  0  0  0  0  0  0  0  0
   -0.5165    0.6254    1.4378 C   0  0  0  0  0  0  0  0  0  0  0  0
    0.7740    0.1971    1.2085 C   0  0  0  0  0  0  0  0  0  0  0  0
    1.4040    0.3842   -0.0061 C   0  0  0  0  0  0  0  0  0  0  0  0
    2.6977   -0.0534   -0.2132 O   0  0  0  0  0  0  0  0  0  0  0  0
    3.3924   -0.7121    0.8550 C   0  0  0  0  0  0  0  0  0  0  0  0
    4.7558   -1.0874    0.3979 C   0  0  0  0  0  0  0  0  0  0  0  0
    5.8269   -0.2293    0.5504 C   0  0  0  0  0  0  0  0  0  0  0  0
    7.1040   -0.5478    0.1369 C   0  0  0  0  0  0  0  0  0  0  0  0
    7.3259   -1.7911   -0.4620 C   0  0  0  0  0  0  0  0  0  0  0  0
    6.2654   -2.6502   -0.6171 C   0  0  0  0  0  0  0  0  0  0  0  0
    4.9940   -2.3126   -0.1964 C   0  0  0  0  0  0  0  0  0  0  0  0
  1  2  1  0
  2  3  1  0
  3  4  2  0
  4  5  1  0
  5  6  1  0
  6  7  1  0
  7  8  2  0
  8  9  1  0
  8 10  1  0
 10 11  2  0
 11 12  1  0
 11 13  1  0
 13 14  2  0
 14 15  1  0
  5 16  2  0
 16 17  1  0
 17 18  2  0
 18 19  1  0
 19 20  1  0
 20 21  1  0
 21 22  2  0
 22 23  1  0
 23 24  2  0
 24 25  1  0
 25 26  2  0
 18  3  1  0
 26 21  1  0
 14  7  1  0
M  END
>  <zinc_id>  (677) 
ZINC000013532930

>  <ortholog_name>  (677) 
DRTS_PLAFK

>  <gene_name>  (677) 
DRTS_PLAFK

>  <affinity>  (677) 
5.55

>  <chembldocid>  (677) 
17636

>  <title>  (677) 
None

>  <reference.pubmed_id>  (677) 
14711307

>  <reference.doi>  (677) 
None

>  <reference.chembl_id>  (677) 
CHEMBL1148379

>  <reference.journal>  (677) 
J. Med. Chem.

>  <reference.year>  (677) 
2004

$$$$

     RDKit          3D

 26 28  0  0  0  0  0  0  0  0999 V2000
    0.5992    1.8766   -3.2734 C   0  0  0  0  0  0  0  0  0  0  0  0
    1.3271    1.2213   -2.2514 O   0  0  0  0  0  0  0  0  0  0  0  0
    0.7303    1.0143   -1.0179 C   0  0  0  0  0  0  0  0  0  0  0  0
   -0.5563    1.4381   -0.7803 C   0  0  0  0  0  0  0  0  0  0  0  0
   -1.1923    1.2575    0.4231 C   0  0  0  0  0  0  0  0  0  0  0  0
   -2.5562    1.7343    0.6014 C   0  0  0  0  0  0  0  0  0  0  0  0
   -3.6182    0.7857    0.2632 C   0  0  0  0  0  0  0  0  0  0  0  0
   -3.4397   -0.4928   -0.1992 C   0  0  0  0  0  0  0  0  0  0  0  0
   -2.0713   -0.9865   -0.3832 C   0  0  0  0  0  0  0  0  0  0  0  0
   -4.4856   -1.2949   -0.4845 N   0  0  0  0  0  0  0  0  0  0  0  0
   -5.7399   -0.8609   -0.3225 C   0  0  0  0  0  0  0  0  0  0  0  0
   -6.8838   -1.6505   -0.6029 N   0  0  0  0  0  0  0  0  0  0  0  0
   -5.9663    0.4027    0.1348 N   0  0  0  0  0  0  0  0  0  0  0  0
   -4.9264    1.2128    0.4230 C   0  0  0  0  0  0  0  0  0  0  0  0
   -5.2439    2.5194    0.8961 N   0  0  0  0  0  0  0  0  0  0  0  0
   -0.5165    0.6254    1.4378 C   0  0  0  0  0  0  0  0  0  0  0  0
    0.7740    0.1971    1.2085 C   0  0  0  0  0  0  0  0  0  0  0  0
    1.4040    0.3842   -0.0061 C   0  0  0  0  0  0  0  0  0  0  0  0
    2.6977   -0.0534   -0.2132 O   0  0  0  0  0  0  0  0  0  0  0  0
    3.3924   -0.7121    0.8550 C   0  0  0  0  0  0  0  0  0  0  0  0
    4.7558   -1.0874    0.3979 C   0  0  0  0  0  0  0  0  0  0  0  0
    5.8269   -0.2293    0.5504 C   0  0  0  0  0  0  0  0  0  0  0  0
    7.1040   -0.5478    0.1369 C   0  0  0  0  0  0  0  0  0  0  0  0
    7.3259   -1.7911   -0.4620 C   0  0  0  0  0  0  0  0  0  0  0  0
    6.2654   -2.6502   -0.6171 C   0  0  0  0  0  0  0  0  0  0  0  0
    4.9940   -2.3126   -0.1964 C   0  0  0  0  0  0  0  0  0  0  0  0
  1  2  1  0
  2  3  1  0
  3  4  2  0
  4  5  1  0
  5  6  1  0
  6  7  1  0
  7  8  2  0
  8  9  1  0
  8 10  1  0
 10 11  2  0
 11 12  1  0
 11 13  1  0
 13 14  2  0
 14 15  1  0
  5 16  2  0
 16 17  1  0
 17 18  2  0
 18 19  1  0
 19 20  1  0
 20 21  1  0
 21 22  2  0
 22 23  1  0
 23 24  2  0
 24 25  1  0
 25 26  2  0
 18  3  1  0
 26 21  1  0
 14  7  1  0
M  END
>  <zinc_id>  (678) 
ZINC000013532930

>  <ortholog_name>  (678) 
DRTS_PLAFK

>  <gene_name>  (678) 
DRTS_PLAFK

>  <affinity>  (678) 
8.47

>  <chembldocid>  (678) 
17636

>  <title>  (678) 
None

>  <reference.pubmed_id>  (678) 
14711307

>  <reference.doi>  (678) 
None

>  <reference.chembl_id>  (678) 
CHEMBL1148379

>  <reference.journal>  (678) 
J. Med. Chem.

>  <reference.year>  (678) 
2004

$$$$

     RDKit          3D

 26 28  0  0  0  0  0  0  0  0999 V2000
    0.5992    1.8766   -3.2734 C   0  0  0  0  0  0  0  0  0  0  0  0
    1.3271    1.2213   -2.2514 O   0  0  0  0  0  0  0  0  0  0  0  0
    0.7303    1.0143   -1.0179 C   0  0  0  0  0  0  0  0  0  0  0  0
   -0.5563    1.4381   -0.7803 C   0  0  0  0  0  0  0  0  0  0  0  0
   -1.1923    1.2575    0.4231 C   0  0  0  0  0  0  0  0  0  0  0  0
   -2.5562    1.7343    0.6014 C   0  0  0  0  0  0  0  0  0  0  0  0
   -3.6182    0.7857    0.2632 C   0  0  0  0  0  0  0  0  0  0  0  0
   -3.4397   -0.4928   -0.1992 C   0  0  0  0  0  0  0  0  0  0  0  0
   -2.0713   -0.9865   -0.3832 C   0  0  0  0  0  0  0  0  0  0  0  0
   -4.4856   -1.2949   -0.4845 N   0  0  0  0  0  0  0  0  0  0  0  0
   -5.7399   -0.8609   -0.3225 C   0  0  0  0  0  0  0  0  0  0  0  0
   -6.8838   -1.6505   -0.6029 N   0  0  0  0  0  0  0  0  0  0  0  0
   -5.9663    0.4027    0.1348 N   0  0  0  0  0  0  0  0  0  0  0  0
   -4.9264    1.2128    0.4230 C   0  0  0  0  0  0  0  0  0  0  0  0
   -5.2439    2.5194    0.8961 N   0  0  0  0  0  0  0  0  0  0  0  0
   -0.5165    0.6254    1.4378 C   0  0  0  0  0  0  0  0  0  0  0  0
    0.7740    0.1971    1.2085 C   0  0  0  0  0  0  0  0  0  0  0  0
    1.4040    0.3842   -0.0061 C   0  0  0  0  0  0  0  0  0  0  0  0
    2.6977   -0.0534   -0.2132 O   0  0  0  0  0  0  0  0  0  0  0  0
    3.3924   -0.7121    0.8550 C   0  0  0  0  0  0  0  0  0  0  0  0
    4.7558   -1.0874    0.3979 C   0  0  0  0  0  0  0  0  0  0  0  0
    5.8269   -0.2293    0.5504 C   0  0  0  0  0  0  0  0  0  0  0  0
    7.1040   -0.5478    0.1369 C   0  0  0  0  0  0  0  0  0  0  0  0
    7.3259   -1.7911   -0.4620 C   0  0  0  0  0  0  0  0  0  0  0  0
    6.2654   -2.6502   -0.6171 C   0  0  0  0  0  0  0  0  0  0  0  0
    4.9940   -2.3126   -0.1964 C   0  0  0  0  0  0  0  0  0  0  0  0
  1  2  1  0
  2  3  1  0
  3  4  2  0
  4  5  1  0
  5  6  1  0
  6  7  1  0
  7  8  2  0
  8  9  1  0
  8 10  1  0
 10 11  2  0
 11 12  1  0
 11 13  1  0
 13 14  2  0
 14 15  1  0
  5 16  2  0
 16 17  1  0
 17 18  2  0
 18 19  1  0
 19 20  1  0
 20 21  1  0
 21 22  2  0
 22 23  1  0
 23 24  2  0
 24 25  1  0
 25 26  2  0
 18  3  1  0
 26 21  1  0
 14  7  1  0
M  END
>  <zinc_id>  (679) 
ZINC000013532930

>  <ortholog_name>  (679) 
DRTS_PLAFK

>  <gene_name>  (679) 
DRTS_PLAFK

>  <affinity>  (679) 
5.32

>  <chembldocid>  (679) 
17636

>  <title>  (679) 
None

>  <reference.pubmed_id>  (679) 
14711307

>  <reference.doi>  (679) 
None

>  <reference.chembl_id>  (679) 
CHEMBL1148379

>  <reference.journal>  (679) 
J. Med. Chem.

>  <reference.year>  (679) 
2004

$$$$

     RDKit          3D

 26 28  0  0  0  0  0  0  0  0999 V2000
    0.5992    1.8766   -3.2734 C   0  0  0  0  0  0  0  0  0  0  0  0
    1.3271    1.2213   -2.2514 O   0  0  0  0  0  0  0  0  0  0  0  0
    0.7303    1.0143   -1.0179 C   0  0  0  0  0  0  0  0  0  0  0  0
   -0.5563    1.4381   -0.7803 C   0  0  0  0  0  0  0  0  0  0  0  0
   -1.1923    1.2575    0.4231 C   0  0  0  0  0  0  0  0  0  0  0  0
   -2.5562    1.7343    0.6014 C   0  0  0  0  0  0  0  0  0  0  0  0
   -3.6182    0.7857    0.2632 C   0  0  0  0  0  0  0  0  0  0  0  0
   -3.4397   -0.4928   -0.1992 C   0  0  0  0  0  0  0  0  0  0  0  0
   -2.0713   -0.9865   -0.3832 C   0  0  0  0  0  0  0  0  0  0  0  0
   -4.4856   -1.2949   -0.4845 N   0  0  0  0  0  0  0  0  0  0  0  0
   -5.7399   -0.8609   -0.3225 C   0  0  0  0  0  0  0  0  0  0  0  0
   -6.8838   -1.6505   -0.6029 N   0  0  0  0  0  0  0  0  0  0  0  0
   -5.9663    0.4027    0.1348 N   0  0  0  0  0  0  0  0  0  0  0  0
   -4.9264    1.2128    0.4230 C   0  0  0  0  0  0  0  0  0  0  0  0
   -5.2439    2.5194    0.8961 N   0  0  0  0  0  0  0  0  0  0  0  0
   -0.5165    0.6254    1.4378 C   0  0  0  0  0  0  0  0  0  0  0  0
    0.7740    0.1971    1.2085 C   0  0  0  0  0  0  0  0  0  0  0  0
    1.4040    0.3842   -0.0061 C   0  0  0  0  0  0  0  0  0  0  0  0
    2.6977   -0.0534   -0.2132 O   0  0  0  0  0  0  0  0  0  0  0  0
    3.3924   -0.7121    0.8550 C   0  0  0  0  0  0  0  0  0  0  0  0
    4.7558   -1.0874    0.3979 C   0  0  0  0  0  0  0  0  0  0  0  0
    5.8269   -0.2293    0.5504 C   0  0  0  0  0  0  0  0  0  0  0  0
    7.1040   -0.5478    0.1369 C   0  0  0  0  0  0  0  0  0  0  0  0
    7.3259   -1.7911   -0.4620 C   0  0  0  0  0  0  0  0  0  0  0  0
    6.2654   -2.6502   -0.6171 C   0  0  0  0  0  0  0  0  0  0  0  0
    4.9940   -2.3126   -0.1964 C   0  0  0  0  0  0  0  0  0  0  0  0
  1  2  1  0
  2  3  1  0
  3  4  2  0
  4  5  1  0
  5  6  1  0
  6  7  1  0
  7  8  2  0
  8  9  1  0
  8 10  1  0
 10 11  2  0
 11 12  1  0
 11 13  1  0
 13 14  2  0
 14 15  1  0
  5 16  2  0
 16 17  1  0
 17 18  2  0
 18 19  1  0
 19 20  1  0
 20 21  1  0
 21 22  2  0
 22 23  1  0
 23 24  2  0
 24 25  1  0
 25 26  2  0
 18  3  1  0
 26 21  1  0
 14  7  1  0
M  END
>  <zinc_id>  (680) 
ZINC000013532930

>  <ortholog_name>  (680) 
DRTS_PLAFK

>  <gene_name>  (680) 
DRTS_PLAFK

>  <affinity>  (680) 
7.18

>  <chembldocid>  (680) 
17636

>  <title>  (680) 
None

>  <reference.pubmed_id>  (680) 
14711307

>  <reference.doi>  (680) 
None

>  <reference.chembl_id>  (680) 
CHEMBL1148379

>  <reference.journal>  (680) 
J. Med. Chem.

>  <reference.year>  (680) 
2004

$$$$

     RDKit          3D

 26 28  0  0  0  0  0  0  0  0999 V2000
    0.5992    1.8766   -3.2734 C   0  0  0  0  0  0  0  0  0  0  0  0
    1.3271    1.2213   -2.2514 O   0  0  0  0  0  0  0  0  0  0  0  0
    0.7303    1.0143   -1.0179 C   0  0  0  0  0  0  0  0  0  0  0  0
   -0.5563    1.4381   -0.7803 C   0  0  0  0  0  0  0  0  0  0  0  0
   -1.1923    1.2575    0.4231 C   0  0  0  0  0  0  0  0  0  0  0  0
   -2.5562    1.7343    0.6014 C   0  0  0  0  0  0  0  0  0  0  0  0
   -3.6182    0.7857    0.2632 C   0  0  0  0  0  0  0  0  0  0  0  0
   -3.4397   -0.4928   -0.1992 C   0  0  0  0  0  0  0  0  0  0  0  0
   -2.0713   -0.9865   -0.3832 C   0  0  0  0  0  0  0  0  0  0  0  0
   -4.4856   -1.2949   -0.4845 N   0  0  0  0  0  0  0  0  0  0  0  0
   -5.7399   -0.8609   -0.3225 C   0  0  0  0  0  0  0  0  0  0  0  0
   -6.8838   -1.6505   -0.6029 N   0  0  0  0  0  0  0  0  0  0  0  0
   -5.9663    0.4027    0.1348 N   0  0  0  0  0  0  0  0  0  0  0  0
   -4.9264    1.2128    0.4230 C   0  0  0  0  0  0  0  0  0  0  0  0
   -5.2439    2.5194    0.8961 N   0  0  0  0  0  0  0  0  0  0  0  0
   -0.5165    0.6254    1.4378 C   0  0  0  0  0  0  0  0  0  0  0  0
    0.7740    0.1971    1.2085 C   0  0  0  0  0  0  0  0  0  0  0  0
    1.4040    0.3842   -0.0061 C   0  0  0  0  0  0  0  0  0  0  0  0
    2.6977   -0.0534   -0.2132 O   0  0  0  0  0  0  0  0  0  0  0  0
    3.3924   -0.7121    0.8550 C   0  0  0  0  0  0  0  0  0  0  0  0
    4.7558   -1.0874    0.3979 C   0  0  0  0  0  0  0  0  0  0  0  0
    5.8269   -0.2293    0.5504 C   0  0  0  0  0  0  0  0  0  0  0  0
    7.1040   -0.5478    0.1369 C   0  0  0  0  0  0  0  0  0  0  0  0
    7.3259   -1.7911   -0.4620 C   0  0  0  0  0  0  0  0  0  0  0  0
    6.2654   -2.6502   -0.6171 C   0  0  0  0  0  0  0  0  0  0  0  0
    4.9940   -2.3126   -0.1964 C   0  0  0  0  0  0  0  0  0  0  0  0
  1  2  1  0
  2  3  1  0
  3  4  2  0
  4  5  1  0
  5  6  1  0
  6  7  1  0
  7  8  2  0
  8  9  1  0
  8 10  1  0
 10 11  2  0
 11 12  1  0
 11 13  1  0
 13 14  2  0
 14 15  1  0
  5 16  2  0
 16 17  1  0
 17 18  2  0
 18 19  1  0
 19 20  1  0
 20 21  1  0
 21 22  2  0
 22 23  1  0
 23 24  2  0
 24 25  1  0
 25 26  2  0
 18  3  1  0
 26 21  1  0
 14  7  1  0
M  END
>  <zinc_id>  (681) 
ZINC000013532930

>  <ortholog_name>  (681) 
DRTS_PLAFK

>  <gene_name>  (681) 
DRTS_PLAFK

>  <affinity>  (681) 
5.16

>  <chembldocid>  (681) 
17636

>  <title>  (681) 
None

>  <reference.pubmed_id>  (681) 
14711307

>  <reference.doi>  (681) 
None

>  <reference.chembl_id>  (681) 
CHEMBL1148379

>  <reference.journal>  (681) 
J. Med. Chem.

>  <reference.year>  (681) 
2004

$$$$

     RDKit          3D

 26 28  0  0  0  0  0  0  0  0999 V2000
    0.5992    1.8766   -3.2734 C   0  0  0  0  0  0  0  0  0  0  0  0
    1.3271    1.2213   -2.2514 O   0  0  0  0  0  0  0  0  0  0  0  0
    0.7303    1.0143   -1.0179 C   0  0  0  0  0  0  0  0  0  0  0  0
   -0.5563    1.4381   -0.7803 C   0  0  0  0  0  0  0  0  0  0  0  0
   -1.1923    1.2575    0.4231 C   0  0  0  0  0  0  0  0  0  0  0  0
   -2.5562    1.7343    0.6014 C   0  0  0  0  0  0  0  0  0  0  0  0
   -3.6182    0.7857    0.2632 C   0  0  0  0  0  0  0  0  0  0  0  0
   -3.4397   -0.4928   -0.1992 C   0  0  0  0  0  0  0  0  0  0  0  0
   -2.0713   -0.9865   -0.3832 C   0  0  0  0  0  0  0  0  0  0  0  0
   -4.4856   -1.2949   -0.4845 N   0  0  0  0  0  0  0  0  0  0  0  0
   -5.7399   -0.8609   -0.3225 C   0  0  0  0  0  0  0  0  0  0  0  0
   -6.8838   -1.6505   -0.6029 N   0  0  0  0  0  0  0  0  0  0  0  0
   -5.9663    0.4027    0.1348 N   0  0  0  0  0  0  0  0  0  0  0  0
   -4.9264    1.2128    0.4230 C   0  0  0  0  0  0  0  0  0  0  0  0
   -5.2439    2.5194    0.8961 N   0  0  0  0  0  0  0  0  0  0  0  0
   -0.5165    0.6254    1.4378 C   0  0  0  0  0  0  0  0  0  0  0  0
    0.7740    0.1971    1.2085 C   0  0  0  0  0  0  0  0  0  0  0  0
    1.4040    0.3842   -0.0061 C   0  0  0  0  0  0  0  0  0  0  0  0
    2.6977   -0.0534   -0.2132 O   0  0  0  0  0  0  0  0  0  0  0  0
    3.3924   -0.7121    0.8550 C   0  0  0  0  0  0  0  0  0  0  0  0
    4.7558   -1.0874    0.3979 C   0  0  0  0  0  0  0  0  0  0  0  0
    5.8269   -0.2293    0.5504 C   0  0  0  0  0  0  0  0  0  0  0  0
    7.1040   -0.5478    0.1369 C   0  0  0  0  0  0  0  0  0  0  0  0
    7.3259   -1.7911   -0.4620 C   0  0  0  0  0  0  0  0  0  0  0  0
    6.2654   -2.6502   -0.6171 C   0  0  0  0  0  0  0  0  0  0  0  0
    4.9940   -2.3126   -0.1964 C   0  0  0  0  0  0  0  0  0  0  0  0
  1  2  1  0
  2  3  1  0
  3  4  2  0
  4  5  1  0
  5  6  1  0
  6  7  1  0
  7  8  2  0
  8  9  1  0
  8 10  1  0
 10 11  2  0
 11 12  1  0
 11 13  1  0
 13 14  2  0
 14 15  1  0
  5 16  2  0
 16 17  1  0
 17 18  2  0
 18 19  1  0
 19 20  1  0
 20 21  1  0
 21 22  2  0
 22 23  1  0
 23 24  2  0
 24 25  1  0
 25 26  2  0
 18  3  1  0
 26 21  1  0
 14  7  1  0
M  END
>  <zinc_id>  (682) 
ZINC000013532930

>  <ortholog_name>  (682) 
DRTS_PLAFK

>  <gene_name>  (682) 
DRTS_PLAFK

>  <affinity>  (682) 
7.05

>  <chembldocid>  (682) 
17636

>  <title>  (682) 
None

>  <reference.pubmed_id>  (682) 
14711307

>  <reference.doi>  (682) 
None

>  <reference.chembl_id>  (682) 
CHEMBL1148379

>  <reference.journal>  (682) 
J. Med. Chem.

>  <reference.year>  (682) 
2004

$$$$

     RDKit          3D

 26 28  0  0  0  0  0  0  0  0999 V2000
    0.5992    1.8766   -3.2734 C   0  0  0  0  0  0  0  0  0  0  0  0
    1.3271    1.2213   -2.2514 O   0  0  0  0  0  0  0  0  0  0  0  0
    0.7303    1.0143   -1.0179 C   0  0  0  0  0  0  0  0  0  0  0  0
   -0.5563    1.4381   -0.7803 C   0  0  0  0  0  0  0  0  0  0  0  0
   -1.1923    1.2575    0.4231 C   0  0  0  0  0  0  0  0  0  0  0  0
   -2.5562    1.7343    0.6014 C   0  0  0  0  0  0  0  0  0  0  0  0
   -3.6182    0.7857    0.2632 C   0  0  0  0  0  0  0  0  0  0  0  0
   -3.4397   -0.4928   -0.1992 C   0  0  0  0  0  0  0  0  0  0  0  0
   -2.0713   -0.9865   -0.3832 C   0  0  0  0  0  0  0  0  0  0  0  0
   -4.4856   -1.2949   -0.4845 N   0  0  0  0  0  0  0  0  0  0  0  0
   -5.7399   -0.8609   -0.3225 C   0  0  0  0  0  0  0  0  0  0  0  0
   -6.8838   -1.6505   -0.6029 N   0  0  0  0  0  0  0  0  0  0  0  0
   -5.9663    0.4027    0.1348 N   0  0  0  0  0  0  0  0  0  0  0  0
   -4.9264    1.2128    0.4230 C   0  0  0  0  0  0  0  0  0  0  0  0
   -5.2439    2.5194    0.8961 N   0  0  0  0  0  0  0  0  0  0  0  0
   -0.5165    0.6254    1.4378 C   0  0  0  0  0  0  0  0  0  0  0  0
    0.7740    0.1971    1.2085 C   0  0  0  0  0  0  0  0  0  0  0  0
    1.4040    0.3842   -0.0061 C   0  0  0  0  0  0  0  0  0  0  0  0
    2.6977   -0.0534   -0.2132 O   0  0  0  0  0  0  0  0  0  0  0  0
    3.3924   -0.7121    0.8550 C   0  0  0  0  0  0  0  0  0  0  0  0
    4.7558   -1.0874    0.3979 C   0  0  0  0  0  0  0  0  0  0  0  0
    5.8269   -0.2293    0.5504 C   0  0  0  0  0  0  0  0  0  0  0  0
    7.1040   -0.5478    0.1369 C   0  0  0  0  0  0  0  0  0  0  0  0
    7.3259   -1.7911   -0.4620 C   0  0  0  0  0  0  0  0  0  0  0  0
    6.2654   -2.6502   -0.6171 C   0  0  0  0  0  0  0  0  0  0  0  0
    4.9940   -2.3126   -0.1964 C   0  0  0  0  0  0  0  0  0  0  0  0
  1  2  1  0
  2  3  1  0
  3  4  2  0
  4  5  1  0
  5  6  1  0
  6  7  1  0
  7  8  2  0
  8  9  1  0
  8 10  1  0
 10 11  2  0
 11 12  1  0
 11 13  1  0
 13 14  2  0
 14 15  1  0
  5 16  2  0
 16 17  1  0
 17 18  2  0
 18 19  1  0
 19 20  1  0
 20 21  1  0
 21 22  2  0
 22 23  1  0
 23 24  2  0
 24 25  1  0
 25 26  2  0
 18  3  1  0
 26 21  1  0
 14  7  1  0
M  END
>  <zinc_id>  (683) 
ZINC000013532930

>  <ortholog_name>  (683) 
DRTS_PLAFK

>  <gene_name>  (683) 
DRTS_PLAFK

>  <affinity>  (683) 
7.03

>  <chembldocid>  (683) 
17636

>  <title>  (683) 
None

>  <reference.pubmed_id>  (683) 
14711307

>  <reference.doi>  (683) 
None

>  <reference.chembl_id>  (683) 
CHEMBL1148379

>  <reference.journal>  (683) 
J. Med. Chem.

>  <reference.year>  (683) 
2004

$$$$

     RDKit          3D

 27 29  0  0  0  0  0  0  0  0999 V2000
   -3.9521   -2.2840    1.8660 C   0  0  0  0  0  0  0  0  0  0  0  0
   -3.0774   -1.0531    2.0341 C   0  0  0  0  0  0  0  0  0  0  0  0
   -3.7288    0.0592    1.3167 C   0  0  0  0  0  0  0  0  0  0  0  0
   -4.4013    1.0419    1.9704 N   0  0  0  0  0  0  0  0  0  0  0  0
   -4.9851    2.0426    1.2792 C   0  0  0  0  0  0  0  0  0  0  0  0
   -5.6963    3.0836    1.9660 N   0  0  0  0  0  0  0  0  0  0  0  0
   -4.9037    2.0732   -0.0744 N   0  0  0  0  0  0  0  0  0  0  0  0
   -4.2470    1.1213   -0.7768 C   0  0  0  0  0  0  0  0  0  0  0  0
   -4.1581    1.1491   -2.1970 N   0  0  0  0  0  0  0  0  0  0  0  0
   -3.6556    0.1058   -0.0629 C   0  0  0  0  0  0  0  0  0  0  0  0
   -2.9339   -0.9447   -0.7995 C   0  0  0  0  0  0  0  0  0  0  0  0
   -1.4497   -0.7932   -0.7189 C   0  0  0  0  0  0  0  0  0  0  0  0
   -0.7325   -0.0757   -1.6542 C   0  0  0  0  0  0  0  0  0  0  0  0
    0.6373    0.0770   -1.5975 C   0  0  0  0  0  0  0  0  0  0  0  0
    1.3610   -0.5012   -0.5705 C   0  0  0  0  0  0  0  0  0  0  0  0
    2.7410   -0.3678   -0.4825 O   0  0  0  0  0  0  0  0  0  0  0  0
    3.4928    0.3608   -1.4303 C   0  0  0  0  0  0  0  0  0  0  0  0
    4.9424    0.3332   -1.0802 C   0  0  0  0  0  0  0  0  0  0  0  0
    5.7326   -0.6971   -1.5115 C   0  0  0  0  0  0  0  0  0  0  0  0
    7.0683   -0.7340   -1.1975 C   0  0  0  0  0  0  0  0  0  0  0  0
    7.6208    0.2759   -0.4402 C   0  0  0  0  0  0  0  0  0  0  0  0
    6.8531    1.3286    0.0105 C   0  0  0  0  0  0  0  0  0  0  0  0
    5.5166    1.3453   -0.3163 C   0  0  0  0  0  0  0  0  0  0  0  0
    0.6528   -1.2194    0.3680 C   0  0  0  0  0  0  0  0  0  0  0  0
    1.3553   -1.8048    1.4014 O   0  0  0  0  0  0  0  0  0  0  0  0
    0.6747   -2.5523    2.3916 C   0  0  0  0  0  0  0  0  0  0  0  0
   -0.7271   -1.3704    0.3065 C   0  0  0  0  0  0  0  0  0  0  0  0
  1  2  1  0
  2  3  1  0
  3  4  2  0
  4  5  1  0
  5  6  1  0
  5  7  2  0
  7  8  1  0
  8  9  1  0
  8 10  2  0
 10 11  1  0
 11 12  1  0
 12 13  2  0
 13 14  1  0
 14 15  2  0
 15 16  1  0
 16 17  1  0
 17 18  1  0
 18 19  2  0
 19 20  1  0
 20 21  2  0
 21 22  1  0
 22 23  2  0
 15 24  1  0
 24 25  1  0
 25 26  1  0
 24 27  2  0
 10  3  1  0
 27 12  1  0
 23 18  1  0
M  END
>  <zinc_id>  (684) 
ZINC000013532934

>  <ortholog_name>  (684) 
DRTS_PLAFK

>  <gene_name>  (684) 
DRTS_PLAFK

>  <affinity>  (684) 
6.92

>  <chembldocid>  (684) 
17636

>  <title>  (684) 
None

>  <reference.pubmed_id>  (684) 
14711307

>  <reference.doi>  (684) 
None

>  <reference.chembl_id>  (684) 
CHEMBL1148379

>  <reference.journal>  (684) 
J. Med. Chem.

>  <reference.year>  (684) 
2004

$$$$

     RDKit          3D

 27 29  0  0  0  0  0  0  0  0999 V2000
   -3.9521   -2.2840    1.8660 C   0  0  0  0  0  0  0  0  0  0  0  0
   -3.0774   -1.0531    2.0341 C   0  0  0  0  0  0  0  0  0  0  0  0
   -3.7288    0.0592    1.3167 C   0  0  0  0  0  0  0  0  0  0  0  0
   -4.4013    1.0419    1.9704 N   0  0  0  0  0  0  0  0  0  0  0  0
   -4.9851    2.0426    1.2792 C   0  0  0  0  0  0  0  0  0  0  0  0
   -5.6963    3.0836    1.9660 N   0  0  0  0  0  0  0  0  0  0  0  0
   -4.9037    2.0732   -0.0744 N   0  0  0  0  0  0  0  0  0  0  0  0
   -4.2470    1.1213   -0.7768 C   0  0  0  0  0  0  0  0  0  0  0  0
   -4.1581    1.1491   -2.1970 N   0  0  0  0  0  0  0  0  0  0  0  0
   -3.6556    0.1058   -0.0629 C   0  0  0  0  0  0  0  0  0  0  0  0
   -2.9339   -0.9447   -0.7995 C   0  0  0  0  0  0  0  0  0  0  0  0
   -1.4497   -0.7932   -0.7189 C   0  0  0  0  0  0  0  0  0  0  0  0
   -0.7325   -0.0757   -1.6542 C   0  0  0  0  0  0  0  0  0  0  0  0
    0.6373    0.0770   -1.5975 C   0  0  0  0  0  0  0  0  0  0  0  0
    1.3610   -0.5012   -0.5705 C   0  0  0  0  0  0  0  0  0  0  0  0
    2.7410   -0.3678   -0.4825 O   0  0  0  0  0  0  0  0  0  0  0  0
    3.4928    0.3608   -1.4303 C   0  0  0  0  0  0  0  0  0  0  0  0
    4.9424    0.3332   -1.0802 C   0  0  0  0  0  0  0  0  0  0  0  0
    5.7326   -0.6971   -1.5115 C   0  0  0  0  0  0  0  0  0  0  0  0
    7.0683   -0.7340   -1.1975 C   0  0  0  0  0  0  0  0  0  0  0  0
    7.6208    0.2759   -0.4402 C   0  0  0  0  0  0  0  0  0  0  0  0
    6.8531    1.3286    0.0105 C   0  0  0  0  0  0  0  0  0  0  0  0
    5.5166    1.3453   -0.3163 C   0  0  0  0  0  0  0  0  0  0  0  0
    0.6528   -1.2194    0.3680 C   0  0  0  0  0  0  0  0  0  0  0  0
    1.3553   -1.8048    1.4014 O   0  0  0  0  0  0  0  0  0  0  0  0
    0.6747   -2.5523    2.3916 C   0  0  0  0  0  0  0  0  0  0  0  0
   -0.7271   -1.3704    0.3065 C   0  0  0  0  0  0  0  0  0  0  0  0
  1  2  1  0
  2  3  1  0
  3  4  2  0
  4  5  1  0
  5  6  1  0
  5  7  2  0
  7  8  1  0
  8  9  1  0
  8 10  2  0
 10 11  1  0
 11 12  1  0
 12 13  2  0
 13 14  1  0
 14 15  2  0
 15 16  1  0
 16 17  1  0
 17 18  1  0
 18 19  2  0
 19 20  1  0
 20 21  2  0
 21 22  1  0
 22 23  2  0
 15 24  1  0
 24 25  1  0
 25 26  1  0
 24 27  2  0
 10  3  1  0
 27 12  1  0
 23 18  1  0
M  END
>  <zinc_id>  (685) 
ZINC000013532934

>  <ortholog_name>  (685) 
DRTS_PLAFK

>  <gene_name>  (685) 
DRTS_PLAFK

>  <affinity>  (685) 
8.46

>  <chembldocid>  (685) 
17636

>  <title>  (685) 
None

>  <reference.pubmed_id>  (685) 
14711307

>  <reference.doi>  (685) 
None

>  <reference.chembl_id>  (685) 
CHEMBL1148379

>  <reference.journal>  (685) 
J. Med. Chem.

>  <reference.year>  (685) 
2004

$$$$

     RDKit          3D

 27 29  0  0  0  0  0  0  0  0999 V2000
   -3.9521   -2.2840    1.8660 C   0  0  0  0  0  0  0  0  0  0  0  0
   -3.0774   -1.0531    2.0341 C   0  0  0  0  0  0  0  0  0  0  0  0
   -3.7288    0.0592    1.3167 C   0  0  0  0  0  0  0  0  0  0  0  0
   -4.4013    1.0419    1.9704 N   0  0  0  0  0  0  0  0  0  0  0  0
   -4.9851    2.0426    1.2792 C   0  0  0  0  0  0  0  0  0  0  0  0
   -5.6963    3.0836    1.9660 N   0  0  0  0  0  0  0  0  0  0  0  0
   -4.9037    2.0732   -0.0744 N   0  0  0  0  0  0  0  0  0  0  0  0
   -4.2470    1.1213   -0.7768 C   0  0  0  0  0  0  0  0  0  0  0  0
   -4.1581    1.1491   -2.1970 N   0  0  0  0  0  0  0  0  0  0  0  0
   -3.6556    0.1058   -0.0629 C   0  0  0  0  0  0  0  0  0  0  0  0
   -2.9339   -0.9447   -0.7995 C   0  0  0  0  0  0  0  0  0  0  0  0
   -1.4497   -0.7932   -0.7189 C   0  0  0  0  0  0  0  0  0  0  0  0
   -0.7325   -0.0757   -1.6542 C   0  0  0  0  0  0  0  0  0  0  0  0
    0.6373    0.0770   -1.5975 C   0  0  0  0  0  0  0  0  0  0  0  0
    1.3610   -0.5012   -0.5705 C   0  0  0  0  0  0  0  0  0  0  0  0
    2.7410   -0.3678   -0.4825 O   0  0  0  0  0  0  0  0  0  0  0  0
    3.4928    0.3608   -1.4303 C   0  0  0  0  0  0  0  0  0  0  0  0
    4.9424    0.3332   -1.0802 C   0  0  0  0  0  0  0  0  0  0  0  0
    5.7326   -0.6971   -1.5115 C   0  0  0  0  0  0  0  0  0  0  0  0
    7.0683   -0.7340   -1.1975 C   0  0  0  0  0  0  0  0  0  0  0  0
    7.6208    0.2759   -0.4402 C   0  0  0  0  0  0  0  0  0  0  0  0
    6.8531    1.3286    0.0105 C   0  0  0  0  0  0  0  0  0  0  0  0
    5.5166    1.3453   -0.3163 C   0  0  0  0  0  0  0  0  0  0  0  0
    0.6528   -1.2194    0.3680 C   0  0  0  0  0  0  0  0  0  0  0  0
    1.3553   -1.8048    1.4014 O   0  0  0  0  0  0  0  0  0  0  0  0
    0.6747   -2.5523    2.3916 C   0  0  0  0  0  0  0  0  0  0  0  0
   -0.7271   -1.3704    0.3065 C   0  0  0  0  0  0  0  0  0  0  0  0
  1  2  1  0
  2  3  1  0
  3  4  2  0
  4  5  1  0
  5  6  1  0
  5  7  2  0
  7  8  1  0
  8  9  1  0
  8 10  2  0
 10 11  1  0
 11 12  1  0
 12 13  2  0
 13 14  1  0
 14 15  2  0
 15 16  1  0
 16 17  1  0
 17 18  1  0
 18 19  2  0
 19 20  1  0
 20 21  2  0
 21 22  1  0
 22 23  2  0
 15 24  1  0
 24 25  1  0
 25 26  1  0
 24 27  2  0
 10  3  1  0
 27 12  1  0
 23 18  1  0
M  END
>  <zinc_id>  (686) 
ZINC000013532934

>  <ortholog_name>  (686) 
DRTS_PLAFK

>  <gene_name>  (686) 
DRTS_PLAFK

>  <affinity>  (686) 
5.43

>  <chembldocid>  (686) 
17636

>  <title>  (686) 
None

>  <reference.pubmed_id>  (686) 
14711307

>  <reference.doi>  (686) 
None

>  <reference.chembl_id>  (686) 
CHEMBL1148379

>  <reference.journal>  (686) 
J. Med. Chem.

>  <reference.year>  (686) 
2004

$$$$

     RDKit          3D

 27 29  0  0  0  0  0  0  0  0999 V2000
   -3.9521   -2.2840    1.8660 C   0  0  0  0  0  0  0  0  0  0  0  0
   -3.0774   -1.0531    2.0341 C   0  0  0  0  0  0  0  0  0  0  0  0
   -3.7288    0.0592    1.3167 C   0  0  0  0  0  0  0  0  0  0  0  0
   -4.4013    1.0419    1.9704 N   0  0  0  0  0  0  0  0  0  0  0  0
   -4.9851    2.0426    1.2792 C   0  0  0  0  0  0  0  0  0  0  0  0
   -5.6963    3.0836    1.9660 N   0  0  0  0  0  0  0  0  0  0  0  0
   -4.9037    2.0732   -0.0744 N   0  0  0  0  0  0  0  0  0  0  0  0
   -4.2470    1.1213   -0.7768 C   0  0  0  0  0  0  0  0  0  0  0  0
   -4.1581    1.1491   -2.1970 N   0  0  0  0  0  0  0  0  0  0  0  0
   -3.6556    0.1058   -0.0629 C   0  0  0  0  0  0  0  0  0  0  0  0
   -2.9339   -0.9447   -0.7995 C   0  0  0  0  0  0  0  0  0  0  0  0
   -1.4497   -0.7932   -0.7189 C   0  0  0  0  0  0  0  0  0  0  0  0
   -0.7325   -0.0757   -1.6542 C   0  0  0  0  0  0  0  0  0  0  0  0
    0.6373    0.0770   -1.5975 C   0  0  0  0  0  0  0  0  0  0  0  0
    1.3610   -0.5012   -0.5705 C   0  0  0  0  0  0  0  0  0  0  0  0
    2.7410   -0.3678   -0.4825 O   0  0  0  0  0  0  0  0  0  0  0  0
    3.4928    0.3608   -1.4303 C   0  0  0  0  0  0  0  0  0  0  0  0
    4.9424    0.3332   -1.0802 C   0  0  0  0  0  0  0  0  0  0  0  0
    5.7326   -0.6971   -1.5115 C   0  0  0  0  0  0  0  0  0  0  0  0
    7.0683   -0.7340   -1.1975 C   0  0  0  0  0  0  0  0  0  0  0  0
    7.6208    0.2759   -0.4402 C   0  0  0  0  0  0  0  0  0  0  0  0
    6.8531    1.3286    0.0105 C   0  0  0  0  0  0  0  0  0  0  0  0
    5.5166    1.3453   -0.3163 C   0  0  0  0  0  0  0  0  0  0  0  0
    0.6528   -1.2194    0.3680 C   0  0  0  0  0  0  0  0  0  0  0  0
    1.3553   -1.8048    1.4014 O   0  0  0  0  0  0  0  0  0  0  0  0
    0.6747   -2.5523    2.3916 C   0  0  0  0  0  0  0  0  0  0  0  0
   -0.7271   -1.3704    0.3065 C   0  0  0  0  0  0  0  0  0  0  0  0
  1  2  1  0
  2  3  1  0
  3  4  2  0
  4  5  1  0
  5  6  1  0
  5  7  2  0
  7  8  1  0
  8  9  1  0
  8 10  2  0
 10 11  1  0
 11 12  1  0
 12 13  2  0
 13 14  1  0
 14 15  2  0
 15 16  1  0
 16 17  1  0
 17 18  1  0
 18 19  2  0
 19 20  1  0
 20 21  2  0
 21 22  1  0
 22 23  2  0
 15 24  1  0
 24 25  1  0
 25 26  1  0
 24 27  2  0
 10  3  1  0
 27 12  1  0
 23 18  1  0
M  END
>  <zinc_id>  (687) 
ZINC000013532934

>  <ortholog_name>  (687) 
DRTS_PLAFK

>  <gene_name>  (687) 
DRTS_PLAFK

>  <affinity>  (687) 
7.30

>  <chembldocid>  (687) 
17636

>  <title>  (687) 
None

>  <reference.pubmed_id>  (687) 
14711307

>  <reference.doi>  (687) 
None

>  <reference.chembl_id>  (687) 
CHEMBL1148379

>  <reference.journal>  (687) 
J. Med. Chem.

>  <reference.year>  (687) 
2004

$$$$

     RDKit          3D

 27 29  0  0  0  0  0  0  0  0999 V2000
   -3.9521   -2.2840    1.8660 C   0  0  0  0  0  0  0  0  0  0  0  0
   -3.0774   -1.0531    2.0341 C   0  0  0  0  0  0  0  0  0  0  0  0
   -3.7288    0.0592    1.3167 C   0  0  0  0  0  0  0  0  0  0  0  0
   -4.4013    1.0419    1.9704 N   0  0  0  0  0  0  0  0  0  0  0  0
   -4.9851    2.0426    1.2792 C   0  0  0  0  0  0  0  0  0  0  0  0
   -5.6963    3.0836    1.9660 N   0  0  0  0  0  0  0  0  0  0  0  0
   -4.9037    2.0732   -0.0744 N   0  0  0  0  0  0  0  0  0  0  0  0
   -4.2470    1.1213   -0.7768 C   0  0  0  0  0  0  0  0  0  0  0  0
   -4.1581    1.1491   -2.1970 N   0  0  0  0  0  0  0  0  0  0  0  0
   -3.6556    0.1058   -0.0629 C   0  0  0  0  0  0  0  0  0  0  0  0
   -2.9339   -0.9447   -0.7995 C   0  0  0  0  0  0  0  0  0  0  0  0
   -1.4497   -0.7932   -0.7189 C   0  0  0  0  0  0  0  0  0  0  0  0
   -0.7325   -0.0757   -1.6542 C   0  0  0  0  0  0  0  0  0  0  0  0
    0.6373    0.0770   -1.5975 C   0  0  0  0  0  0  0  0  0  0  0  0
    1.3610   -0.5012   -0.5705 C   0  0  0  0  0  0  0  0  0  0  0  0
    2.7410   -0.3678   -0.4825 O   0  0  0  0  0  0  0  0  0  0  0  0
    3.4928    0.3608   -1.4303 C   0  0  0  0  0  0  0  0  0  0  0  0
    4.9424    0.3332   -1.0802 C   0  0  0  0  0  0  0  0  0  0  0  0
    5.7326   -0.6971   -1.5115 C   0  0  0  0  0  0  0  0  0  0  0  0
    7.0683   -0.7340   -1.1975 C   0  0  0  0  0  0  0  0  0  0  0  0
    7.6208    0.2759   -0.4402 C   0  0  0  0  0  0  0  0  0  0  0  0
    6.8531    1.3286    0.0105 C   0  0  0  0  0  0  0  0  0  0  0  0
    5.5166    1.3453   -0.3163 C   0  0  0  0  0  0  0  0  0  0  0  0
    0.6528   -1.2194    0.3680 C   0  0  0  0  0  0  0  0  0  0  0  0
    1.3553   -1.8048    1.4014 O   0  0  0  0  0  0  0  0  0  0  0  0
    0.6747   -2.5523    2.3916 C   0  0  0  0  0  0  0  0  0  0  0  0
   -0.7271   -1.3704    0.3065 C   0  0  0  0  0  0  0  0  0  0  0  0
  1  2  1  0
  2  3  1  0
  3  4  2  0
  4  5  1  0
  5  6  1  0
  5  7  2  0
  7  8  1  0
  8  9  1  0
  8 10  2  0
 10 11  1  0
 11 12  1  0
 12 13  2  0
 13 14  1  0
 14 15  2  0
 15 16  1  0
 16 17  1  0
 17 18  1  0
 18 19  2  0
 19 20  1  0
 20 21  2  0
 21 22  1  0
 22 23  2  0
 15 24  1  0
 24 25  1  0
 25 26  1  0
 24 27  2  0
 10  3  1  0
 27 12  1  0
 23 18  1  0
M  END
>  <zinc_id>  (688) 
ZINC000013532934

>  <ortholog_name>  (688) 
DRTS_PLAFK

>  <gene_name>  (688) 
DRTS_PLAFK

>  <affinity>  (688) 
5.30

>  <chembldocid>  (688) 
17636

>  <title>  (688) 
None

>  <reference.pubmed_id>  (688) 
14711307

>  <reference.doi>  (688) 
None

>  <reference.chembl_id>  (688) 
CHEMBL1148379

>  <reference.journal>  (688) 
J. Med. Chem.

>  <reference.year>  (688) 
2004

$$$$

     RDKit          3D

 27 29  0  0  0  0  0  0  0  0999 V2000
   -3.9521   -2.2840    1.8660 C   0  0  0  0  0  0  0  0  0  0  0  0
   -3.0774   -1.0531    2.0341 C   0  0  0  0  0  0  0  0  0  0  0  0
   -3.7288    0.0592    1.3167 C   0  0  0  0  0  0  0  0  0  0  0  0
   -4.4013    1.0419    1.9704 N   0  0  0  0  0  0  0  0  0  0  0  0
   -4.9851    2.0426    1.2792 C   0  0  0  0  0  0  0  0  0  0  0  0
   -5.6963    3.0836    1.9660 N   0  0  0  0  0  0  0  0  0  0  0  0
   -4.9037    2.0732   -0.0744 N   0  0  0  0  0  0  0  0  0  0  0  0
   -4.2470    1.1213   -0.7768 C   0  0  0  0  0  0  0  0  0  0  0  0
   -4.1581    1.1491   -2.1970 N   0  0  0  0  0  0  0  0  0  0  0  0
   -3.6556    0.1058   -0.0629 C   0  0  0  0  0  0  0  0  0  0  0  0
   -2.9339   -0.9447   -0.7995 C   0  0  0  0  0  0  0  0  0  0  0  0
   -1.4497   -0.7932   -0.7189 C   0  0  0  0  0  0  0  0  0  0  0  0
   -0.7325   -0.0757   -1.6542 C   0  0  0  0  0  0  0  0  0  0  0  0
    0.6373    0.0770   -1.5975 C   0  0  0  0  0  0  0  0  0  0  0  0
    1.3610   -0.5012   -0.5705 C   0  0  0  0  0  0  0  0  0  0  0  0
    2.7410   -0.3678   -0.4825 O   0  0  0  0  0  0  0  0  0  0  0  0
    3.4928    0.3608   -1.4303 C   0  0  0  0  0  0  0  0  0  0  0  0
    4.9424    0.3332   -1.0802 C   0  0  0  0  0  0  0  0  0  0  0  0
    5.7326   -0.6971   -1.5115 C   0  0  0  0  0  0  0  0  0  0  0  0
    7.0683   -0.7340   -1.1975 C   0  0  0  0  0  0  0  0  0  0  0  0
    7.6208    0.2759   -0.4402 C   0  0  0  0  0  0  0  0  0  0  0  0
    6.8531    1.3286    0.0105 C   0  0  0  0  0  0  0  0  0  0  0  0
    5.5166    1.3453   -0.3163 C   0  0  0  0  0  0  0  0  0  0  0  0
    0.6528   -1.2194    0.3680 C   0  0  0  0  0  0  0  0  0  0  0  0
    1.3553   -1.8048    1.4014 O   0  0  0  0  0  0  0  0  0  0  0  0
    0.6747   -2.5523    2.3916 C   0  0  0  0  0  0  0  0  0  0  0  0
   -0.7271   -1.3704    0.3065 C   0  0  0  0  0  0  0  0  0  0  0  0
  1  2  1  0
  2  3  1  0
  3  4  2  0
  4  5  1  0
  5  6  1  0
  5  7  2  0
  7  8  1  0
  8  9  1  0
  8 10  2  0
 10 11  1  0
 11 12  1  0
 12 13  2  0
 13 14  1  0
 14 15  2  0
 15 16  1  0
 16 17  1  0
 17 18  1  0
 18 19  2  0
 19 20  1  0
 20 21  2  0
 21 22  1  0
 22 23  2  0
 15 24  1  0
 24 25  1  0
 25 26  1  0
 24 27  2  0
 10  3  1  0
 27 12  1  0
 23 18  1  0
M  END
>  <zinc_id>  (689) 
ZINC000013532934

>  <ortholog_name>  (689) 
DRTS_PLAFK

>  <gene_name>  (689) 
DRTS_PLAFK

>  <affinity>  (689) 
5.27

>  <chembldocid>  (689) 
17636

>  <title>  (689) 
None

>  <reference.pubmed_id>  (689) 
14711307

>  <reference.doi>  (689) 
None

>  <reference.chembl_id>  (689) 
CHEMBL1148379

>  <reference.journal>  (689) 
J. Med. Chem.

>  <reference.year>  (689) 
2004

$$$$

     RDKit          3D

 27 29  0  0  0  0  0  0  0  0999 V2000
   -3.9521   -2.2840    1.8660 C   0  0  0  0  0  0  0  0  0  0  0  0
   -3.0774   -1.0531    2.0341 C   0  0  0  0  0  0  0  0  0  0  0  0
   -3.7288    0.0592    1.3167 C   0  0  0  0  0  0  0  0  0  0  0  0
   -4.4013    1.0419    1.9704 N   0  0  0  0  0  0  0  0  0  0  0  0
   -4.9851    2.0426    1.2792 C   0  0  0  0  0  0  0  0  0  0  0  0
   -5.6963    3.0836    1.9660 N   0  0  0  0  0  0  0  0  0  0  0  0
   -4.9037    2.0732   -0.0744 N   0  0  0  0  0  0  0  0  0  0  0  0
   -4.2470    1.1213   -0.7768 C   0  0  0  0  0  0  0  0  0  0  0  0
   -4.1581    1.1491   -2.1970 N   0  0  0  0  0  0  0  0  0  0  0  0
   -3.6556    0.1058   -0.0629 C   0  0  0  0  0  0  0  0  0  0  0  0
   -2.9339   -0.9447   -0.7995 C   0  0  0  0  0  0  0  0  0  0  0  0
   -1.4497   -0.7932   -0.7189 C   0  0  0  0  0  0  0  0  0  0  0  0
   -0.7325   -0.0757   -1.6542 C   0  0  0  0  0  0  0  0  0  0  0  0
    0.6373    0.0770   -1.5975 C   0  0  0  0  0  0  0  0  0  0  0  0
    1.3610   -0.5012   -0.5705 C   0  0  0  0  0  0  0  0  0  0  0  0
    2.7410   -0.3678   -0.4825 O   0  0  0  0  0  0  0  0  0  0  0  0
    3.4928    0.3608   -1.4303 C   0  0  0  0  0  0  0  0  0  0  0  0
    4.9424    0.3332   -1.0802 C   0  0  0  0  0  0  0  0  0  0  0  0
    5.7326   -0.6971   -1.5115 C   0  0  0  0  0  0  0  0  0  0  0  0
    7.0683   -0.7340   -1.1975 C   0  0  0  0  0  0  0  0  0  0  0  0
    7.6208    0.2759   -0.4402 C   0  0  0  0  0  0  0  0  0  0  0  0
    6.8531    1.3286    0.0105 C   0  0  0  0  0  0  0  0  0  0  0  0
    5.5166    1.3453   -0.3163 C   0  0  0  0  0  0  0  0  0  0  0  0
    0.6528   -1.2194    0.3680 C   0  0  0  0  0  0  0  0  0  0  0  0
    1.3553   -1.8048    1.4014 O   0  0  0  0  0  0  0  0  0  0  0  0
    0.6747   -2.5523    2.3916 C   0  0  0  0  0  0  0  0  0  0  0  0
   -0.7271   -1.3704    0.3065 C   0  0  0  0  0  0  0  0  0  0  0  0
  1  2  1  0
  2  3  1  0
  3  4  2  0
  4  5  1  0
  5  6  1  0
  5  7  2  0
  7  8  1  0
  8  9  1  0
  8 10  2  0
 10 11  1  0
 11 12  1  0
 12 13  2  0
 13 14  1  0
 14 15  2  0
 15 16  1  0
 16 17  1  0
 17 18  1  0
 18 19  2  0
 19 20  1  0
 20 21  2  0
 21 22  1  0
 22 23  2  0
 15 24  1  0
 24 25  1  0
 25 26  1  0
 24 27  2  0
 10  3  1  0
 27 12  1  0
 23 18  1  0
M  END
>  <zinc_id>  (690) 
ZINC000013532934

>  <ortholog_name>  (690) 
DRTS_PLAFK

>  <gene_name>  (690) 
DRTS_PLAFK

>  <affinity>  (690) 
7.22

>  <chembldocid>  (690) 
17636

>  <title>  (690) 
None

>  <reference.pubmed_id>  (690) 
14711307

>  <reference.doi>  (690) 
None

>  <reference.chembl_id>  (690) 
CHEMBL1148379

>  <reference.journal>  (690) 
J. Med. Chem.

>  <reference.year>  (690) 
2004

$$$$

     RDKit          3D

 27 29  0  0  0  0  0  0  0  0999 V2000
   -3.9521   -2.2840    1.8660 C   0  0  0  0  0  0  0  0  0  0  0  0
   -3.0774   -1.0531    2.0341 C   0  0  0  0  0  0  0  0  0  0  0  0
   -3.7288    0.0592    1.3167 C   0  0  0  0  0  0  0  0  0  0  0  0
   -4.4013    1.0419    1.9704 N   0  0  0  0  0  0  0  0  0  0  0  0
   -4.9851    2.0426    1.2792 C   0  0  0  0  0  0  0  0  0  0  0  0
   -5.6963    3.0836    1.9660 N   0  0  0  0  0  0  0  0  0  0  0  0
   -4.9037    2.0732   -0.0744 N   0  0  0  0  0  0  0  0  0  0  0  0
   -4.2470    1.1213   -0.7768 C   0  0  0  0  0  0  0  0  0  0  0  0
   -4.1581    1.1491   -2.1970 N   0  0  0  0  0  0  0  0  0  0  0  0
   -3.6556    0.1058   -0.0629 C   0  0  0  0  0  0  0  0  0  0  0  0
   -2.9339   -0.9447   -0.7995 C   0  0  0  0  0  0  0  0  0  0  0  0
   -1.4497   -0.7932   -0.7189 C   0  0  0  0  0  0  0  0  0  0  0  0
   -0.7325   -0.0757   -1.6542 C   0  0  0  0  0  0  0  0  0  0  0  0
    0.6373    0.0770   -1.5975 C   0  0  0  0  0  0  0  0  0  0  0  0
    1.3610   -0.5012   -0.5705 C   0  0  0  0  0  0  0  0  0  0  0  0
    2.7410   -0.3678   -0.4825 O   0  0  0  0  0  0  0  0  0  0  0  0
    3.4928    0.3608   -1.4303 C   0  0  0  0  0  0  0  0  0  0  0  0
    4.9424    0.3332   -1.0802 C   0  0  0  0  0  0  0  0  0  0  0  0
    5.7326   -0.6971   -1.5115 C   0  0  0  0  0  0  0  0  0  0  0  0
    7.0683   -0.7340   -1.1975 C   0  0  0  0  0  0  0  0  0  0  0  0
    7.6208    0.2759   -0.4402 C   0  0  0  0  0  0  0  0  0  0  0  0
    6.8531    1.3286    0.0105 C   0  0  0  0  0  0  0  0  0  0  0  0
    5.5166    1.3453   -0.3163 C   0  0  0  0  0  0  0  0  0  0  0  0
    0.6528   -1.2194    0.3680 C   0  0  0  0  0  0  0  0  0  0  0  0
    1.3553   -1.8048    1.4014 O   0  0  0  0  0  0  0  0  0  0  0  0
    0.6747   -2.5523    2.3916 C   0  0  0  0  0  0  0  0  0  0  0  0
   -0.7271   -1.3704    0.3065 C   0  0  0  0  0  0  0  0  0  0  0  0
  1  2  1  0
  2  3  1  0
  3  4  2  0
  4  5  1  0
  5  6  1  0
  5  7  2  0
  7  8  1  0
  8  9  1  0
  8 10  2  0
 10 11  1  0
 11 12  1  0
 12 13  2  0
 13 14  1  0
 14 15  2  0
 15 16  1  0
 16 17  1  0
 17 18  1  0
 18 19  2  0
 19 20  1  0
 20 21  2  0
 21 22  1  0
 22 23  2  0
 15 24  1  0
 24 25  1  0
 25 26  1  0
 24 27  2  0
 10  3  1  0
 27 12  1  0
 23 18  1  0
M  END
>  <zinc_id>  (691) 
ZINC000013532934

>  <ortholog_name>  (691) 
DRTS_PLAFK

>  <gene_name>  (691) 
DRTS_PLAFK

>  <affinity>  (691) 
7.22

>  <chembldocid>  (691) 
17636

>  <title>  (691) 
None

>  <reference.pubmed_id>  (691) 
14711307

>  <reference.doi>  (691) 
None

>  <reference.chembl_id>  (691) 
CHEMBL1148379

>  <reference.journal>  (691) 
J. Med. Chem.

>  <reference.year>  (691) 
2004

$$$$

     RDKit          3D

 27 29  0  0  0  0  0  0  0  0999 V2000
   -3.9521   -2.2840    1.8660 C   0  0  0  0  0  0  0  0  0  0  0  0
   -3.0774   -1.0531    2.0341 C   0  0  0  0  0  0  0  0  0  0  0  0
   -3.7288    0.0592    1.3167 C   0  0  0  0  0  0  0  0  0  0  0  0
   -4.4013    1.0419    1.9704 N   0  0  0  0  0  0  0  0  0  0  0  0
   -4.9851    2.0426    1.2792 C   0  0  0  0  0  0  0  0  0  0  0  0
   -5.6963    3.0836    1.9660 N   0  0  0  0  0  0  0  0  0  0  0  0
   -4.9037    2.0732   -0.0744 N   0  0  0  0  0  0  0  0  0  0  0  0
   -4.2470    1.1213   -0.7768 C   0  0  0  0  0  0  0  0  0  0  0  0
   -4.1581    1.1491   -2.1970 N   0  0  0  0  0  0  0  0  0  0  0  0
   -3.6556    0.1058   -0.0629 C   0  0  0  0  0  0  0  0  0  0  0  0
   -2.9339   -0.9447   -0.7995 C   0  0  0  0  0  0  0  0  0  0  0  0
   -1.4497   -0.7932   -0.7189 C   0  0  0  0  0  0  0  0  0  0  0  0
   -0.7325   -0.0757   -1.6542 C   0  0  0  0  0  0  0  0  0  0  0  0
    0.6373    0.0770   -1.5975 C   0  0  0  0  0  0  0  0  0  0  0  0
    1.3610   -0.5012   -0.5705 C   0  0  0  0  0  0  0  0  0  0  0  0
    2.7410   -0.3678   -0.4825 O   0  0  0  0  0  0  0  0  0  0  0  0
    3.4928    0.3608   -1.4303 C   0  0  0  0  0  0  0  0  0  0  0  0
    4.9424    0.3332   -1.0802 C   0  0  0  0  0  0  0  0  0  0  0  0
    5.7326   -0.6971   -1.5115 C   0  0  0  0  0  0  0  0  0  0  0  0
    7.0683   -0.7340   -1.1975 C   0  0  0  0  0  0  0  0  0  0  0  0
    7.6208    0.2759   -0.4402 C   0  0  0  0  0  0  0  0  0  0  0  0
    6.8531    1.3286    0.0105 C   0  0  0  0  0  0  0  0  0  0  0  0
    5.5166    1.3453   -0.3163 C   0  0  0  0  0  0  0  0  0  0  0  0
    0.6528   -1.2194    0.3680 C   0  0  0  0  0  0  0  0  0  0  0  0
    1.3553   -1.8048    1.4014 O   0  0  0  0  0  0  0  0  0  0  0  0
    0.6747   -2.5523    2.3916 C   0  0  0  0  0  0  0  0  0  0  0  0
   -0.7271   -1.3704    0.3065 C   0  0  0  0  0  0  0  0  0  0  0  0
  1  2  1  0
  2  3  1  0
  3  4  2  0
  4  5  1  0
  5  6  1  0
  5  7  2  0
  7  8  1  0
  8  9  1  0
  8 10  2  0
 10 11  1  0
 11 12  1  0
 12 13  2  0
 13 14  1  0
 14 15  2  0
 15 16  1  0
 16 17  1  0
 17 18  1  0
 18 19  2  0
 19 20  1  0
 20 21  2  0
 21 22  1  0
 22 23  2  0
 15 24  1  0
 24 25  1  0
 25 26  1  0
 24 27  2  0
 10  3  1  0
 27 12  1  0
 23 18  1  0
M  END
>  <zinc_id>  (692) 
ZINC000013532934

>  <ortholog_name>  (692) 
DRTS_PLAFK

>  <gene_name>  (692) 
DRTS_PLAFK

>  <affinity>  (692) 
6.14

>  <chembldocid>  (692) 
17636

>  <title>  (692) 
None

>  <reference.pubmed_id>  (692) 
14711307

>  <reference.doi>  (692) 
None

>  <reference.chembl_id>  (692) 
CHEMBL1148379

>  <reference.journal>  (692) 
J. Med. Chem.

>  <reference.year>  (692) 
2004

$$$$

     RDKit          3D

 27 29  0  0  0  0  0  0  0  0999 V2000
   -3.9521   -2.2840    1.8660 C   0  0  0  0  0  0  0  0  0  0  0  0
   -3.0774   -1.0531    2.0341 C   0  0  0  0  0  0  0  0  0  0  0  0
   -3.7288    0.0592    1.3167 C   0  0  0  0  0  0  0  0  0  0  0  0
   -4.4013    1.0419    1.9704 N   0  0  0  0  0  0  0  0  0  0  0  0
   -4.9851    2.0426    1.2792 C   0  0  0  0  0  0  0  0  0  0  0  0
   -5.6963    3.0836    1.9660 N   0  0  0  0  0  0  0  0  0  0  0  0
   -4.9037    2.0732   -0.0744 N   0  0  0  0  0  0  0  0  0  0  0  0
   -4.2470    1.1213   -0.7768 C   0  0  0  0  0  0  0  0  0  0  0  0
   -4.1581    1.1491   -2.1970 N   0  0  0  0  0  0  0  0  0  0  0  0
   -3.6556    0.1058   -0.0629 C   0  0  0  0  0  0  0  0  0  0  0  0
   -2.9339   -0.9447   -0.7995 C   0  0  0  0  0  0  0  0  0  0  0  0
   -1.4497   -0.7932   -0.7189 C   0  0  0  0  0  0  0  0  0  0  0  0
   -0.7325   -0.0757   -1.6542 C   0  0  0  0  0  0  0  0  0  0  0  0
    0.6373    0.0770   -1.5975 C   0  0  0  0  0  0  0  0  0  0  0  0
    1.3610   -0.5012   -0.5705 C   0  0  0  0  0  0  0  0  0  0  0  0
    2.7410   -0.3678   -0.4825 O   0  0  0  0  0  0  0  0  0  0  0  0
    3.4928    0.3608   -1.4303 C   0  0  0  0  0  0  0  0  0  0  0  0
    4.9424    0.3332   -1.0802 C   0  0  0  0  0  0  0  0  0  0  0  0
    5.7326   -0.6971   -1.5115 C   0  0  0  0  0  0  0  0  0  0  0  0
    7.0683   -0.7340   -1.1975 C   0  0  0  0  0  0  0  0  0  0  0  0
    7.6208    0.2759   -0.4402 C   0  0  0  0  0  0  0  0  0  0  0  0
    6.8531    1.3286    0.0105 C   0  0  0  0  0  0  0  0  0  0  0  0
    5.5166    1.3453   -0.3163 C   0  0  0  0  0  0  0  0  0  0  0  0
    0.6528   -1.2194    0.3680 C   0  0  0  0  0  0  0  0  0  0  0  0
    1.3553   -1.8048    1.4014 O   0  0  0  0  0  0  0  0  0  0  0  0
    0.6747   -2.5523    2.3916 C   0  0  0  0  0  0  0  0  0  0  0  0
   -0.7271   -1.3704    0.3065 C   0  0  0  0  0  0  0  0  0  0  0  0
  1  2  1  0
  2  3  1  0
  3  4  2  0
  4  5  1  0
  5  6  1  0
  5  7  2  0
  7  8  1  0
  8  9  1  0
  8 10  2  0
 10 11  1  0
 11 12  1  0
 12 13  2  0
 13 14  1  0
 14 15  2  0
 15 16  1  0
 16 17  1  0
 17 18  1  0
 18 19  2  0
 19 20  1  0
 20 21  2  0
 21 22  1  0
 22 23  2  0
 15 24  1  0
 24 25  1  0
 25 26  1  0
 24 27  2  0
 10  3  1  0
 27 12  1  0
 23 18  1  0
M  END
>  <zinc_id>  (693) 
ZINC000013532934

>  <ortholog_name>  (693) 
DRTS_PLAFK

>  <gene_name>  (693) 
DRTS_PLAFK

>  <affinity>  (693) 
6.12

>  <chembldocid>  (693) 
17636

>  <title>  (693) 
None

>  <reference.pubmed_id>  (693) 
14711307

>  <reference.doi>  (693) 
None

>  <reference.chembl_id>  (693) 
CHEMBL1148379

>  <reference.journal>  (693) 
J. Med. Chem.

>  <reference.year>  (693) 
2004

$$$$

     RDKit          3D

 35 37  0  0  0  0  0  0  0  0999 V2000
    1.8688    0.7691   -5.5592 C   0  0  0  0  0  0  0  0  0  0  0  0
    1.5473   -0.6967   -5.3518 C   0  0  0  0  0  0  0  0  0  0  0  0
    1.7595   -1.0653   -3.8853 C   0  0  0  0  0  0  0  0  0  0  0  0
    0.8984   -0.2579   -3.0957 O   0  0  0  0  0  0  0  0  0  0  0  0
    0.8101   -0.2868   -1.7336 C   0  0  0  0  0  0  0  0  0  0  0  0
    1.5472   -1.1521   -0.9747 C   0  0  0  0  0  0  0  0  0  0  0  0
    1.4752   -1.1921    0.4033 C   0  0  0  0  0  0  0  0  0  0  0  0
    2.3216   -2.1727    1.1259 C   0  0  0  0  0  0  0  0  0  0  0  0
    3.6774   -1.6177    1.3510 C   0  0  0  0  0  0  0  0  0  0  0  0
    3.9216   -0.6891    2.3040 C   0  0  0  0  0  0  0  0  0  0  0  0
    2.8985   -0.1920    3.1766 N   0  0  0  0  0  0  0  0  0  0  0  0
    5.1704   -0.1963    2.4648 N   0  0  0  0  0  0  0  0  0  0  0  0
    6.1399   -0.6337    1.6818 C   0  0  0  0  0  0  0  0  0  0  0  0
    7.4948   -0.1528    1.8189 N   0  0  0  0  0  0  0  0  0  0  0  0
    5.9376   -1.5547    0.7250 N   0  0  0  0  0  0  0  0  0  0  0  0
    4.7297   -2.0466    0.5537 C   0  0  0  0  0  0  0  0  0  0  0  0
    4.4686   -3.0659   -0.4837 C   0  0  0  0  0  0  0  0  0  0  0  0
    4.3492   -4.4155    0.1859 C   0  0  0  0  0  0  0  0  0  0  0  0
    0.6076   -0.3046    1.0435 C   0  0  0  0  0  0  0  0  0  0  0  0
   -0.1303    0.5646    0.2668 C   0  0  0  0  0  0  0  0  0  0  0  0
   -0.0498    0.5929   -1.0970 C   0  0  0  0  0  0  0  0  0  0  0  0
   -0.7725    1.4413   -1.8876 O   0  0  0  0  0  0  0  0  0  0  0  0
   -1.6913    2.3973   -1.5555 C   0  0  0  0  0  0  0  0  0  0  0  0
   -2.8869    1.9473   -0.8077 C   0  0  0  0  0  0  0  0  0  0  0  0
   -3.0191    2.3248    0.4942 C   0  0  0  0  0  0  0  0  0  0  0  0
   -4.1363    1.9490    1.3034 C   0  0  0  0  0  0  0  0  0  0  0  0
   -4.2770    2.2937    2.5256 O   0  0  0  0  0  0  0  0  0  0  0  0
   -4.3956    2.6576    3.7650 C   0  0  0  0  0  0  0  0  0  0  0  0
   -5.0759    1.1611    0.6381 C   0  0  0  0  0  0  0  0  0  0  0  0
   -6.2121    0.7549    1.3858 O   0  0  0  0  0  0  0  0  0  0  0  0
   -7.3320    1.6255    1.3283 C   0  0  0  0  0  0  0  0  0  0  0  0
   -5.0095    0.7433   -0.6675 C   0  0  0  0  0  0  0  0  0  0  0  0
   -5.9445    0.0043   -1.2034 O   0  0  0  0  0  0  0  0  0  0  0  0
   -6.8304   -0.7066   -1.7418 C   0  0  0  0  0  0  0  0  0  0  0  0
   -3.8602    1.1724   -1.3792 C   0  0  0  0  0  0  0  0  0  0  0  0
  1  2  1  0
  2  3  1  0
  3  4  1  0
  4  5  1  0
  5  6  2  0
  6  7  1  0
  7  8  1  0
  8  9  1  0
  9 10  2  0
 10 11  1  0
 10 12  1  0
 12 13  2  0
 13 14  1  0
 13 15  1  0
 15 16  2  0
 16 17  1  0
 17 18  1  0
  7 19  2  0
 19 20  1  0
 20 21  2  0
 21 22  1  0
 22 23  1  0
 23 24  1  0
 24 25  2  0
 25 26  1  0
 26 27  1  0
 27 28  1  0
 26 29  2  0
 29 30  1  0
 30 31  1  0
 29 32  1  0
 32 33  1  0
 33 34  1  0
 32 35  2  0
 21  5  1  0
 35 24  1  0
 16  9  1  0
M  END
>  <zinc_id>  (694) 
ZINC000013532938

>  <ortholog_name>  (694) 
DRTS_PLAFK

>  <gene_name>  (694) 
DRTS_PLAFK

>  <affinity>  (694) 
8.74

>  <chembldocid>  (694) 
17636

>  <title>  (694) 
None

>  <reference.pubmed_id>  (694) 
14711307

>  <reference.doi>  (694) 
None

>  <reference.chembl_id>  (694) 
CHEMBL1148379

>  <reference.journal>  (694) 
J. Med. Chem.

>  <reference.year>  (694) 
2004

$$$$

     RDKit          3D

 35 37  0  0  0  0  0  0  0  0999 V2000
    1.8688    0.7691   -5.5592 C   0  0  0  0  0  0  0  0  0  0  0  0
    1.5473   -0.6967   -5.3518 C   0  0  0  0  0  0  0  0  0  0  0  0
    1.7595   -1.0653   -3.8853 C   0  0  0  0  0  0  0  0  0  0  0  0
    0.8984   -0.2579   -3.0957 O   0  0  0  0  0  0  0  0  0  0  0  0
    0.8101   -0.2868   -1.7336 C   0  0  0  0  0  0  0  0  0  0  0  0
    1.5472   -1.1521   -0.9747 C   0  0  0  0  0  0  0  0  0  0  0  0
    1.4752   -1.1921    0.4033 C   0  0  0  0  0  0  0  0  0  0  0  0
    2.3216   -2.1727    1.1259 C   0  0  0  0  0  0  0  0  0  0  0  0
    3.6774   -1.6177    1.3510 C   0  0  0  0  0  0  0  0  0  0  0  0
    3.9216   -0.6891    2.3040 C   0  0  0  0  0  0  0  0  0  0  0  0
    2.8985   -0.1920    3.1766 N   0  0  0  0  0  0  0  0  0  0  0  0
    5.1704   -0.1963    2.4648 N   0  0  0  0  0  0  0  0  0  0  0  0
    6.1399   -0.6337    1.6818 C   0  0  0  0  0  0  0  0  0  0  0  0
    7.4948   -0.1528    1.8189 N   0  0  0  0  0  0  0  0  0  0  0  0
    5.9376   -1.5547    0.7250 N   0  0  0  0  0  0  0  0  0  0  0  0
    4.7297   -2.0466    0.5537 C   0  0  0  0  0  0  0  0  0  0  0  0
    4.4686   -3.0659   -0.4837 C   0  0  0  0  0  0  0  0  0  0  0  0
    4.3492   -4.4155    0.1859 C   0  0  0  0  0  0  0  0  0  0  0  0
    0.6076   -0.3046    1.0435 C   0  0  0  0  0  0  0  0  0  0  0  0
   -0.1303    0.5646    0.2668 C   0  0  0  0  0  0  0  0  0  0  0  0
   -0.0498    0.5929   -1.0970 C   0  0  0  0  0  0  0  0  0  0  0  0
   -0.7725    1.4413   -1.8876 O   0  0  0  0  0  0  0  0  0  0  0  0
   -1.6913    2.3973   -1.5555 C   0  0  0  0  0  0  0  0  0  0  0  0
   -2.8869    1.9473   -0.8077 C   0  0  0  0  0  0  0  0  0  0  0  0
   -3.0191    2.3248    0.4942 C   0  0  0  0  0  0  0  0  0  0  0  0
   -4.1363    1.9490    1.3034 C   0  0  0  0  0  0  0  0  0  0  0  0
   -4.2770    2.2937    2.5256 O   0  0  0  0  0  0  0  0  0  0  0  0
   -4.3956    2.6576    3.7650 C   0  0  0  0  0  0  0  0  0  0  0  0
   -5.0759    1.1611    0.6381 C   0  0  0  0  0  0  0  0  0  0  0  0
   -6.2121    0.7549    1.3858 O   0  0  0  0  0  0  0  0  0  0  0  0
   -7.3320    1.6255    1.3283 C   0  0  0  0  0  0  0  0  0  0  0  0
   -5.0095    0.7433   -0.6675 C   0  0  0  0  0  0  0  0  0  0  0  0
   -5.9445    0.0043   -1.2034 O   0  0  0  0  0  0  0  0  0  0  0  0
   -6.8304   -0.7066   -1.7418 C   0  0  0  0  0  0  0  0  0  0  0  0
   -3.8602    1.1724   -1.3792 C   0  0  0  0  0  0  0  0  0  0  0  0
  1  2  1  0
  2  3  1  0
  3  4  1  0
  4  5  1  0
  5  6  2  0
  6  7  1  0
  7  8  1  0
  8  9  1  0
  9 10  2  0
 10 11  1  0
 10 12  1  0
 12 13  2  0
 13 14  1  0
 13 15  1  0
 15 16  2  0
 16 17  1  0
 17 18  1  0
  7 19  2  0
 19 20  1  0
 20 21  2  0
 21 22  1  0
 22 23  1  0
 23 24  1  0
 24 25  2  0
 25 26  1  0
 26 27  1  0
 27 28  1  0
 26 29  2  0
 29 30  1  0
 30 31  1  0
 29 32  1  0
 32 33  1  0
 33 34  1  0
 32 35  2  0
 21  5  1  0
 35 24  1  0
 16  9  1  0
M  END
>  <zinc_id>  (695) 
ZINC000013532938

>  <ortholog_name>  (695) 
DRTS_PLAFK

>  <gene_name>  (695) 
DRTS_PLAFK

>  <affinity>  (695) 
6.81

>  <chembldocid>  (695) 
17636

>  <title>  (695) 
None

>  <reference.pubmed_id>  (695) 
14711307

>  <reference.doi>  (695) 
None

>  <reference.chembl_id>  (695) 
CHEMBL1148379

>  <reference.journal>  (695) 
J. Med. Chem.

>  <reference.year>  (695) 
2004

$$$$

     RDKit          3D

 35 37  0  0  0  0  0  0  0  0999 V2000
    1.8688    0.7691   -5.5592 C   0  0  0  0  0  0  0  0  0  0  0  0
    1.5473   -0.6967   -5.3518 C   0  0  0  0  0  0  0  0  0  0  0  0
    1.7595   -1.0653   -3.8853 C   0  0  0  0  0  0  0  0  0  0  0  0
    0.8984   -0.2579   -3.0957 O   0  0  0  0  0  0  0  0  0  0  0  0
    0.8101   -0.2868   -1.7336 C   0  0  0  0  0  0  0  0  0  0  0  0
    1.5472   -1.1521   -0.9747 C   0  0  0  0  0  0  0  0  0  0  0  0
    1.4752   -1.1921    0.4033 C   0  0  0  0  0  0  0  0  0  0  0  0
    2.3216   -2.1727    1.1259 C   0  0  0  0  0  0  0  0  0  0  0  0
    3.6774   -1.6177    1.3510 C   0  0  0  0  0  0  0  0  0  0  0  0
    3.9216   -0.6891    2.3040 C   0  0  0  0  0  0  0  0  0  0  0  0
    2.8985   -0.1920    3.1766 N   0  0  0  0  0  0  0  0  0  0  0  0
    5.1704   -0.1963    2.4648 N   0  0  0  0  0  0  0  0  0  0  0  0
    6.1399   -0.6337    1.6818 C   0  0  0  0  0  0  0  0  0  0  0  0
    7.4948   -0.1528    1.8189 N   0  0  0  0  0  0  0  0  0  0  0  0
    5.9376   -1.5547    0.7250 N   0  0  0  0  0  0  0  0  0  0  0  0
    4.7297   -2.0466    0.5537 C   0  0  0  0  0  0  0  0  0  0  0  0
    4.4686   -3.0659   -0.4837 C   0  0  0  0  0  0  0  0  0  0  0  0
    4.3492   -4.4155    0.1859 C   0  0  0  0  0  0  0  0  0  0  0  0
    0.6076   -0.3046    1.0435 C   0  0  0  0  0  0  0  0  0  0  0  0
   -0.1303    0.5646    0.2668 C   0  0  0  0  0  0  0  0  0  0  0  0
   -0.0498    0.5929   -1.0970 C   0  0  0  0  0  0  0  0  0  0  0  0
   -0.7725    1.4413   -1.8876 O   0  0  0  0  0  0  0  0  0  0  0  0
   -1.6913    2.3973   -1.5555 C   0  0  0  0  0  0  0  0  0  0  0  0
   -2.8869    1.9473   -0.8077 C   0  0  0  0  0  0  0  0  0  0  0  0
   -3.0191    2.3248    0.4942 C   0  0  0  0  0  0  0  0  0  0  0  0
   -4.1363    1.9490    1.3034 C   0  0  0  0  0  0  0  0  0  0  0  0
   -4.2770    2.2937    2.5256 O   0  0  0  0  0  0  0  0  0  0  0  0
   -4.3956    2.6576    3.7650 C   0  0  0  0  0  0  0  0  0  0  0  0
   -5.0759    1.1611    0.6381 C   0  0  0  0  0  0  0  0  0  0  0  0
   -6.2121    0.7549    1.3858 O   0  0  0  0  0  0  0  0  0  0  0  0
   -7.3320    1.6255    1.3283 C   0  0  0  0  0  0  0  0  0  0  0  0
   -5.0095    0.7433   -0.6675 C   0  0  0  0  0  0  0  0  0  0  0  0
   -5.9445    0.0043   -1.2034 O   0  0  0  0  0  0  0  0  0  0  0  0
   -6.8304   -0.7066   -1.7418 C   0  0  0  0  0  0  0  0  0  0  0  0
   -3.8602    1.1724   -1.3792 C   0  0  0  0  0  0  0  0  0  0  0  0
  1  2  1  0
  2  3  1  0
  3  4  1  0
  4  5  1  0
  5  6  2  0
  6  7  1  0
  7  8  1  0
  8  9  1  0
  9 10  2  0
 10 11  1  0
 10 12  1  0
 12 13  2  0
 13 14  1  0
 13 15  1  0
 15 16  2  0
 16 17  1  0
 17 18  1  0
  7 19  2  0
 19 20  1  0
 20 21  2  0
 21 22  1  0
 22 23  1  0
 23 24  1  0
 24 25  2  0
 25 26  1  0
 26 27  1  0
 27 28  1  0
 26 29  2  0
 29 30  1  0
 30 31  1  0
 29 32  1  0
 32 33  1  0
 33 34  1  0
 32 35  2  0
 21  5  1  0
 35 24  1  0
 16  9  1  0
M  END
>  <zinc_id>  (696) 
ZINC000013532938

>  <ortholog_name>  (696) 
DRTS_PLAFK

>  <gene_name>  (696) 
DRTS_PLAFK

>  <affinity>  (696) 
7.31

>  <chembldocid>  (696) 
17636

>  <title>  (696) 
None

>  <reference.pubmed_id>  (696) 
14711307

>  <reference.doi>  (696) 
None

>  <reference.chembl_id>  (696) 
CHEMBL1148379

>  <reference.journal>  (696) 
J. Med. Chem.

>  <reference.year>  (696) 
2004

$$$$

     RDKit          3D

 35 37  0  0  0  0  0  0  0  0999 V2000
    1.8688    0.7691   -5.5592 C   0  0  0  0  0  0  0  0  0  0  0  0
    1.5473   -0.6967   -5.3518 C   0  0  0  0  0  0  0  0  0  0  0  0
    1.7595   -1.0653   -3.8853 C   0  0  0  0  0  0  0  0  0  0  0  0
    0.8984   -0.2579   -3.0957 O   0  0  0  0  0  0  0  0  0  0  0  0
    0.8101   -0.2868   -1.7336 C   0  0  0  0  0  0  0  0  0  0  0  0
    1.5472   -1.1521   -0.9747 C   0  0  0  0  0  0  0  0  0  0  0  0
    1.4752   -1.1921    0.4033 C   0  0  0  0  0  0  0  0  0  0  0  0
    2.3216   -2.1727    1.1259 C   0  0  0  0  0  0  0  0  0  0  0  0
    3.6774   -1.6177    1.3510 C   0  0  0  0  0  0  0  0  0  0  0  0
    3.9216   -0.6891    2.3040 C   0  0  0  0  0  0  0  0  0  0  0  0
    2.8985   -0.1920    3.1766 N   0  0  0  0  0  0  0  0  0  0  0  0
    5.1704   -0.1963    2.4648 N   0  0  0  0  0  0  0  0  0  0  0  0
    6.1399   -0.6337    1.6818 C   0  0  0  0  0  0  0  0  0  0  0  0
    7.4948   -0.1528    1.8189 N   0  0  0  0  0  0  0  0  0  0  0  0
    5.9376   -1.5547    0.7250 N   0  0  0  0  0  0  0  0  0  0  0  0
    4.7297   -2.0466    0.5537 C   0  0  0  0  0  0  0  0  0  0  0  0
    4.4686   -3.0659   -0.4837 C   0  0  0  0  0  0  0  0  0  0  0  0
    4.3492   -4.4155    0.1859 C   0  0  0  0  0  0  0  0  0  0  0  0
    0.6076   -0.3046    1.0435 C   0  0  0  0  0  0  0  0  0  0  0  0
   -0.1303    0.5646    0.2668 C   0  0  0  0  0  0  0  0  0  0  0  0
   -0.0498    0.5929   -1.0970 C   0  0  0  0  0  0  0  0  0  0  0  0
   -0.7725    1.4413   -1.8876 O   0  0  0  0  0  0  0  0  0  0  0  0
   -1.6913    2.3973   -1.5555 C   0  0  0  0  0  0  0  0  0  0  0  0
   -2.8869    1.9473   -0.8077 C   0  0  0  0  0  0  0  0  0  0  0  0
   -3.0191    2.3248    0.4942 C   0  0  0  0  0  0  0  0  0  0  0  0
   -4.1363    1.9490    1.3034 C   0  0  0  0  0  0  0  0  0  0  0  0
   -4.2770    2.2937    2.5256 O   0  0  0  0  0  0  0  0  0  0  0  0
   -4.3956    2.6576    3.7650 C   0  0  0  0  0  0  0  0  0  0  0  0
   -5.0759    1.1611    0.6381 C   0  0  0  0  0  0  0  0  0  0  0  0
   -6.2121    0.7549    1.3858 O   0  0  0  0  0  0  0  0  0  0  0  0
   -7.3320    1.6255    1.3283 C   0  0  0  0  0  0  0  0  0  0  0  0
   -5.0095    0.7433   -0.6675 C   0  0  0  0  0  0  0  0  0  0  0  0
   -5.9445    0.0043   -1.2034 O   0  0  0  0  0  0  0  0  0  0  0  0
   -6.8304   -0.7066   -1.7418 C   0  0  0  0  0  0  0  0  0  0  0  0
   -3.8602    1.1724   -1.3792 C   0  0  0  0  0  0  0  0  0  0  0  0
  1  2  1  0
  2  3  1  0
  3  4  1  0
  4  5  1  0
  5  6  2  0
  6  7  1  0
  7  8  1  0
  8  9  1  0
  9 10  2  0
 10 11  1  0
 10 12  1  0
 12 13  2  0
 13 14  1  0
 13 15  1  0
 15 16  2  0
 16 17  1  0
 17 18  1  0
  7 19  2  0
 19 20  1  0
 20 21  2  0
 21 22  1  0
 22 23  1  0
 23 24  1  0
 24 25  2  0
 25 26  1  0
 26 27  1  0
 27 28  1  0
 26 29  2  0
 29 30  1  0
 30 31  1  0
 29 32  1  0
 32 33  1  0
 33 34  1  0
 32 35  2  0
 21  5  1  0
 35 24  1  0
 16  9  1  0
M  END
>  <zinc_id>  (697) 
ZINC000013532938

>  <ortholog_name>  (697) 
DRTS_PLAFK

>  <gene_name>  (697) 
DRTS_PLAFK

>  <affinity>  (697) 
6.16

>  <chembldocid>  (697) 
17636

>  <title>  (697) 
None

>  <reference.pubmed_id>  (697) 
14711307

>  <reference.doi>  (697) 
None

>  <reference.chembl_id>  (697) 
CHEMBL1148379

>  <reference.journal>  (697) 
J. Med. Chem.

>  <reference.year>  (697) 
2004

$$$$

     RDKit          3D

 18 19  0  0  0  0  0  0  0  0999 V2000
   -1.5446   -1.9953    1.8958 C   0  0  0  0  0  0  0  0  0  0  0  0
   -1.4407   -0.4755    2.0556 C   0  0  0  0  0  0  0  0  0  0  0  0
   -1.6919    0.1047    0.7144 C   0  0  0  0  0  0  0  0  0  0  0  0
   -2.8970    0.6769    0.4486 N   0  0  0  0  0  0  0  0  0  0  0  0
   -3.1455    1.2181   -0.7648 C   0  0  0  0  0  0  0  0  0  0  0  0
   -4.4313    1.8072   -1.0008 N   0  0  0  0  0  0  0  0  0  0  0  0
   -2.2114    1.2040   -1.7390 N   0  0  0  0  0  0  0  0  0  0  0  0
   -1.0248    0.6382   -1.4748 C   0  0  0  0  0  0  0  0  0  0  0  0
   -0.0649    0.6437   -2.5212 N   0  0  0  0  0  0  0  0  0  0  0  0
   -0.7163    0.0701   -0.2513 C   0  0  0  0  0  0  0  0  0  0  0  0
    0.5952   -0.5288   -0.0216 C   0  0  0  0  0  0  0  0  0  0  0  0
    0.7839   -1.8969   -0.0345 C   0  0  0  0  0  0  0  0  0  0  0  0
    2.0545   -2.4289    0.1916 C   0  0  0  0  0  0  0  0  0  0  0  0
    3.1415   -1.6103    0.4309 C   0  0  0  0  0  0  0  0  0  0  0  0
    2.9654   -0.2358    0.4462 C   0  0  0  0  0  0  0  0  0  0  0  0
    4.0745    0.5613    0.6906 O   0  0  0  0  0  0  0  0  0  0  0  0
    3.8448    1.9699    0.7124 C   0  0  0  0  0  0  0  0  0  0  0  0
    1.7088    0.2776    0.2220 C   0  0  0  0  0  0  0  0  0  0  0  0
  1  2  1  0
  2  3  1  0
  3  4  2  0
  4  5  1  0
  5  6  1  0
  5  7  2  0
  7  8  1  0
  8  9  1  0
  8 10  2  0
 10 11  1  0
 11 12  2  0
 12 13  1  0
 13 14  2  0
 14 15  1  0
 15 16  1  0
 16 17  1  0
 15 18  2  0
 10  3  1  0
 18 11  1  0
M  END
>  <zinc_id>  (698) 
ZINC000013555336

>  <ortholog_name>  (698) 
DRTS_PLAFK

>  <gene_name>  (698) 
DRTS_PLAFK

>  <affinity>  (698) 
8.97

>  <chembldocid>  (698) 
14888

>  <title>  (698) 
None

>  <reference.pubmed_id>  (698) 
9554869

>  <reference.doi>  (698) 
None

>  <reference.chembl_id>  (698) 
CHEMBL1131602

>  <reference.journal>  (698) 
J. Med. Chem.

>  <reference.year>  (698) 
1998

$$$$

     RDKit          3D

 18 19  0  0  0  0  0  0  0  0999 V2000
   -1.5446   -1.9953    1.8958 C   0  0  0  0  0  0  0  0  0  0  0  0
   -1.4407   -0.4755    2.0556 C   0  0  0  0  0  0  0  0  0  0  0  0
   -1.6919    0.1047    0.7144 C   0  0  0  0  0  0  0  0  0  0  0  0
   -2.8970    0.6769    0.4486 N   0  0  0  0  0  0  0  0  0  0  0  0
   -3.1455    1.2181   -0.7648 C   0  0  0  0  0  0  0  0  0  0  0  0
   -4.4313    1.8072   -1.0008 N   0  0  0  0  0  0  0  0  0  0  0  0
   -2.2114    1.2040   -1.7390 N   0  0  0  0  0  0  0  0  0  0  0  0
   -1.0248    0.6382   -1.4748 C   0  0  0  0  0  0  0  0  0  0  0  0
   -0.0649    0.6437   -2.5212 N   0  0  0  0  0  0  0  0  0  0  0  0
   -0.7163    0.0701   -0.2513 C   0  0  0  0  0  0  0  0  0  0  0  0
    0.5952   -0.5288   -0.0216 C   0  0  0  0  0  0  0  0  0  0  0  0
    0.7839   -1.8969   -0.0345 C   0  0  0  0  0  0  0  0  0  0  0  0
    2.0545   -2.4289    0.1916 C   0  0  0  0  0  0  0  0  0  0  0  0
    3.1415   -1.6103    0.4309 C   0  0  0  0  0  0  0  0  0  0  0  0
    2.9654   -0.2358    0.4462 C   0  0  0  0  0  0  0  0  0  0  0  0
    4.0745    0.5613    0.6906 O   0  0  0  0  0  0  0  0  0  0  0  0
    3.8448    1.9699    0.7124 C   0  0  0  0  0  0  0  0  0  0  0  0
    1.7088    0.2776    0.2220 C   0  0  0  0  0  0  0  0  0  0  0  0
  1  2  1  0
  2  3  1  0
  3  4  2  0
  4  5  1  0
  5  6  1  0
  5  7  2  0
  7  8  1  0
  8  9  1  0
  8 10  2  0
 10 11  1  0
 11 12  2  0
 12 13  1  0
 13 14  2  0
 14 15  1  0
 15 16  1  0
 16 17  1  0
 15 18  2  0
 10  3  1  0
 18 11  1  0
M  END
>  <zinc_id>  (699) 
ZINC000013555336

>  <ortholog_name>  (699) 
DRTS_PLAFK

>  <gene_name>  (699) 
DRTS_PLAFK

>  <affinity>  (699) 
7.85

>  <chembldocid>  (699) 
14888

>  <title>  (699) 
None

>  <reference.pubmed_id>  (699) 
9554869

>  <reference.doi>  (699) 
None

>  <reference.chembl_id>  (699) 
CHEMBL1131602

>  <reference.journal>  (699) 
J. Med. Chem.

>  <reference.year>  (699) 
1998

$$$$

     RDKit          3D

 18 19  0  0  0  0  0  0  0  0999 V2000
   -1.5446   -1.9953    1.8958 C   0  0  0  0  0  0  0  0  0  0  0  0
   -1.4407   -0.4755    2.0556 C   0  0  0  0  0  0  0  0  0  0  0  0
   -1.6919    0.1047    0.7144 C   0  0  0  0  0  0  0  0  0  0  0  0
   -2.8970    0.6769    0.4486 N   0  0  0  0  0  0  0  0  0  0  0  0
   -3.1455    1.2181   -0.7648 C   0  0  0  0  0  0  0  0  0  0  0  0
   -4.4313    1.8072   -1.0008 N   0  0  0  0  0  0  0  0  0  0  0  0
   -2.2114    1.2040   -1.7390 N   0  0  0  0  0  0  0  0  0  0  0  0
   -1.0248    0.6382   -1.4748 C   0  0  0  0  0  0  0  0  0  0  0  0
   -0.0649    0.6437   -2.5212 N   0  0  0  0  0  0  0  0  0  0  0  0
   -0.7163    0.0701   -0.2513 C   0  0  0  0  0  0  0  0  0  0  0  0
    0.5952   -0.5288   -0.0216 C   0  0  0  0  0  0  0  0  0  0  0  0
    0.7839   -1.8969   -0.0345 C   0  0  0  0  0  0  0  0  0  0  0  0
    2.0545   -2.4289    0.1916 C   0  0  0  0  0  0  0  0  0  0  0  0
    3.1415   -1.6103    0.4309 C   0  0  0  0  0  0  0  0  0  0  0  0
    2.9654   -0.2358    0.4462 C   0  0  0  0  0  0  0  0  0  0  0  0
    4.0745    0.5613    0.6906 O   0  0  0  0  0  0  0  0  0  0  0  0
    3.8448    1.9699    0.7124 C   0  0  0  0  0  0  0  0  0  0  0  0
    1.7088    0.2776    0.2220 C   0  0  0  0  0  0  0  0  0  0  0  0
  1  2  1  0
  2  3  1  0
  3  4  2  0
  4  5  1  0
  5  6  1  0
  5  7  2  0
  7  8  1  0
  8  9  1  0
  8 10  2  0
 10 11  1  0
 11 12  2  0
 12 13  1  0
 13 14  2  0
 14 15  1  0
 15 16  1  0
 16 17  1  0
 15 18  2  0
 10  3  1  0
 18 11  1  0
M  END
>  <zinc_id>  (700) 
ZINC000013555336

>  <ortholog_name>  (700) 
DRTS_PLAFK

>  <gene_name>  (700) 
DRTS_PLAFK

>  <affinity>  (700) 
7.44

>  <chembldocid>  (700) 
21047

>  <title>  (700) 
None

>  <reference.pubmed_id>  (700) 
15293997

>  <reference.doi>  (700) 
None

>  <reference.chembl_id>  (700) 
CHEMBL1138679

>  <reference.journal>  (700) 
J. Med. Chem.

>  <reference.year>  (700) 
2004

$$$$

     RDKit          3D

 18 19  0  0  0  0  0  0  0  0999 V2000
   -0.8220    2.7492    0.1903 C   0  0  0  0  0  0  0  0  0  0  0  0
   -1.5132    1.8758   -0.8181 C   0  0  0  0  0  0  0  0  0  0  0  0
   -1.7963    0.5342   -0.2504 C   0  0  0  0  0  0  0  0  0  0  0  0
   -3.0344    0.1462    0.1513 N   0  0  0  0  0  0  0  0  0  0  0  0
   -3.2751   -1.0840    0.6498 C   0  0  0  0  0  0  0  0  0  0  0  0
   -4.6033   -1.4760    1.0609 N   0  0  0  0  0  0  0  0  0  0  0  0
   -2.2315   -1.9263    0.7386 N   0  0  0  0  0  0  0  0  0  0  0  0
   -0.9810   -1.5988    0.3569 C   0  0  0  0  0  0  0  0  0  0  0  0
    0.1060   -2.4968    0.4653 N   0  0  0  0  0  0  0  0  0  0  0  0
   -0.7392   -0.3408   -0.1513 C   0  0  0  0  0  0  0  0  0  0  0  0
    0.5983    0.0769   -0.5649 C   0  0  0  0  0  0  0  0  0  0  0  0
    0.9176    0.3823   -1.8726 C   0  0  0  0  0  0  0  0  0  0  0  0
    2.1914    0.7567   -2.2565 C   0  0  0  0  0  0  0  0  0  0  0  0
    3.2018    0.8358   -1.3247 C   0  0  0  0  0  0  0  0  0  0  0  0
    2.9036    0.5344   -0.0150 C   0  0  0  0  0  0  0  0  0  0  0  0
    3.8778    0.5931    0.9733 O   0  0  0  0  0  0  0  0  0  0  0  0
    3.5667    0.2737    2.3098 C   0  0  0  0  0  0  0  0  0  0  0  0
    1.6328    0.1642    0.3575 C   0  0  0  0  0  0  0  0  0  0  0  0
  1  2  1  0
  2  3  1  0
  3  4  2  0
  4  5  1  0
  5  6  1  0
  5  7  2  0
  7  8  1  0
  8  9  1  0
  8 10  2  0
 10 11  1  0
 11 12  2  0
 12 13  1  0
 13 14  2  0
 14 15  1  0
 15 16  1  0
 16 17  1  0
 15 18  2  0
 10  3  1  0
 18 11  1  0
M  END
>  <zinc_id>  (701) 
ZINC000013555336

>  <ortholog_name>  (701) 
DRTS_PLAFK

>  <gene_name>  (701) 
DRTS_PLAFK

>  <affinity>  (701) 
7.14

>  <chembldocid>  (701) 
14888

>  <title>  (701) 
None

>  <reference.pubmed_id>  (701) 
9554869

>  <reference.doi>  (701) 
None

>  <reference.chembl_id>  (701) 
CHEMBL1131602

>  <reference.journal>  (701) 
J. Med. Chem.

>  <reference.year>  (701) 
1998

$$$$

     RDKit          3D

 18 19  0  0  0  0  0  0  0  0999 V2000
   -0.8220    2.7492    0.1903 C   0  0  0  0  0  0  0  0  0  0  0  0
   -1.5132    1.8758   -0.8181 C   0  0  0  0  0  0  0  0  0  0  0  0
   -1.7963    0.5342   -0.2504 C   0  0  0  0  0  0  0  0  0  0  0  0
   -3.0344    0.1462    0.1513 N   0  0  0  0  0  0  0  0  0  0  0  0
   -3.2751   -1.0840    0.6498 C   0  0  0  0  0  0  0  0  0  0  0  0
   -4.6033   -1.4760    1.0609 N   0  0  0  0  0  0  0  0  0  0  0  0
   -2.2315   -1.9263    0.7386 N   0  0  0  0  0  0  0  0  0  0  0  0
   -0.9810   -1.5988    0.3569 C   0  0  0  0  0  0  0  0  0  0  0  0
    0.1060   -2.4968    0.4653 N   0  0  0  0  0  0  0  0  0  0  0  0
   -0.7392   -0.3408   -0.1513 C   0  0  0  0  0  0  0  0  0  0  0  0
    0.5983    0.0769   -0.5649 C   0  0  0  0  0  0  0  0  0  0  0  0
    0.9176    0.3823   -1.8726 C   0  0  0  0  0  0  0  0  0  0  0  0
    2.1914    0.7567   -2.2565 C   0  0  0  0  0  0  0  0  0  0  0  0
    3.2018    0.8358   -1.3247 C   0  0  0  0  0  0  0  0  0  0  0  0
    2.9036    0.5344   -0.0150 C   0  0  0  0  0  0  0  0  0  0  0  0
    3.8778    0.5931    0.9733 O   0  0  0  0  0  0  0  0  0  0  0  0
    3.5667    0.2737    2.3098 C   0  0  0  0  0  0  0  0  0  0  0  0
    1.6328    0.1642    0.3575 C   0  0  0  0  0  0  0  0  0  0  0  0
  1  2  1  0
  2  3  1  0
  3  4  2  0
  4  5  1  0
  5  6  1  0
  5  7  2  0
  7  8  1  0
  8  9  1  0
  8 10  2  0
 10 11  1  0
 11 12  2  0
 12 13  1  0
 13 14  2  0
 14 15  1  0
 15 16  1  0
 16 17  1  0
 15 18  2  0
 10  3  1  0
 18 11  1  0
M  END
>  <zinc_id>  (702) 
ZINC000013555336

>  <ortholog_name>  (702) 
DRTS_PLAFK

>  <gene_name>  (702) 
DRTS_PLAFK

>  <affinity>  (702) 
8.03

>  <chembldocid>  (702) 
14888

>  <title>  (702) 
None

>  <reference.pubmed_id>  (702) 
9554869

>  <reference.doi>  (702) 
None

>  <reference.chembl_id>  (702) 
CHEMBL1131602

>  <reference.journal>  (702) 
J. Med. Chem.

>  <reference.year>  (702) 
1998

$$$$

     RDKit          3D

 18 19  0  0  0  0  0  0  0  0999 V2000
    3.2684    3.2420    0.1488 N   0  0  0  0  0  0  0  0  0  0  0  0
    2.1486    2.3314    0.0593 C   0  0  0  0  0  0  0  0  0  0  0  0
    1.2044    2.4779   -0.8877 N   0  0  0  0  0  0  0  0  0  0  0  0
    0.1688    1.6344   -0.9606 C   0  0  0  0  0  0  0  0  0  0  0  0
   -0.8525    1.7746   -1.9667 N   0  0  0  0  0  0  0  0  0  0  0  0
    0.0151    0.5814   -0.0789 C   0  0  0  0  0  0  0  0  0  0  0  0
   -1.1784   -0.2619   -0.1386 C   0  0  0  0  0  0  0  0  0  0  0  0
   -1.4883   -1.0089   -1.2148 C   0  0  0  0  0  0  0  0  0  0  0  0
   -2.6090   -1.8159   -1.2550 C   0  0  0  0  0  0  0  0  0  0  0  0
   -3.4748   -1.8850   -0.1612 C   0  0  0  0  0  0  0  0  0  0  0  0
   -3.1719   -1.1290    0.9449 C   0  0  0  0  0  0  0  0  0  0  0  0
   -2.0389   -0.3187    0.9737 C   0  0  0  0  0  0  0  0  0  0  0  0
    0.9805    0.4218    0.8946 C   0  0  0  0  0  0  0  0  0  0  0  0
    0.9135   -0.6920    1.8511 C   0  0  0  0  0  0  0  0  0  0  0  0
    1.5139   -1.9660    1.4932 C   0  0  0  0  0  0  0  0  0  0  0  0
    1.1456   -2.6966    0.2823 C   0  0  0  0  0  0  0  0  0  0  0  0
    1.4420   -2.0055   -0.9022 O   0  0  0  0  0  0  0  0  0  0  0  0
    2.0127    1.3160    0.9180 N   0  0  0  0  0  0  0  0  0  0  0  0
  1  2  1  0
  2  3  2  0
  3  4  1  0
  4  5  1  0
  4  6  2  0
  6  7  1  0
  7  8  2  0
  8  9  1  0
  9 10  2  0
 10 11  1  0
 11 12  2  0
  6 13  1  0
 13 14  1  0
 14 15  1  0
 15 16  1  0
 16 17  1  0
 13 18  2  0
 18  2  1  0
 12  7  1  0
M  END
>  <zinc_id>  (703) 
ZINC000013559291

>  <ortholog_name>  (703) 
DRTS_PLAFK

>  <gene_name>  (703) 
DRTS_PLAFK

>  <affinity>  (703) 
6.92

>  <chembldocid>  (703) 
17662

>  <title>  (703) 
None

>  <reference.pubmed_id>  (703) 
14736247

>  <reference.doi>  (703) 
None

>  <reference.chembl_id>  (703) 
CHEMBL1138835

>  <reference.journal>  (703) 
J. Med. Chem.

>  <reference.year>  (703) 
2004

$$$$

     RDKit          3D

 18 19  0  0  0  0  0  0  0  0999 V2000
    3.2684    3.2420    0.1488 N   0  0  0  0  0  0  0  0  0  0  0  0
    2.1486    2.3314    0.0593 C   0  0  0  0  0  0  0  0  0  0  0  0
    1.2044    2.4779   -0.8877 N   0  0  0  0  0  0  0  0  0  0  0  0
    0.1688    1.6344   -0.9606 C   0  0  0  0  0  0  0  0  0  0  0  0
   -0.8525    1.7746   -1.9667 N   0  0  0  0  0  0  0  0  0  0  0  0
    0.0151    0.5814   -0.0789 C   0  0  0  0  0  0  0  0  0  0  0  0
   -1.1784   -0.2619   -0.1386 C   0  0  0  0  0  0  0  0  0  0  0  0
   -1.4883   -1.0089   -1.2148 C   0  0  0  0  0  0  0  0  0  0  0  0
   -2.6090   -1.8159   -1.2550 C   0  0  0  0  0  0  0  0  0  0  0  0
   -3.4748   -1.8850   -0.1612 C   0  0  0  0  0  0  0  0  0  0  0  0
   -3.1719   -1.1290    0.9449 C   0  0  0  0  0  0  0  0  0  0  0  0
   -2.0389   -0.3187    0.9737 C   0  0  0  0  0  0  0  0  0  0  0  0
    0.9805    0.4218    0.8946 C   0  0  0  0  0  0  0  0  0  0  0  0
    0.9135   -0.6920    1.8511 C   0  0  0  0  0  0  0  0  0  0  0  0
    1.5139   -1.9660    1.4932 C   0  0  0  0  0  0  0  0  0  0  0  0
    1.1456   -2.6966    0.2823 C   0  0  0  0  0  0  0  0  0  0  0  0
    1.4420   -2.0055   -0.9022 O   0  0  0  0  0  0  0  0  0  0  0  0
    2.0127    1.3160    0.9180 N   0  0  0  0  0  0  0  0  0  0  0  0
  1  2  1  0
  2  3  2  0
  3  4  1  0
  4  5  1  0
  4  6  2  0
  6  7  1  0
  7  8  2  0
  8  9  1  0
  9 10  2  0
 10 11  1  0
 11 12  2  0
  6 13  1  0
 13 14  1  0
 14 15  1  0
 15 16  1  0
 16 17  1  0
 13 18  2  0
 18  2  1  0
 12  7  1  0
M  END
>  <zinc_id>  (704) 
ZINC000013559291

>  <ortholog_name>  (704) 
DRTS_PLAFK

>  <gene_name>  (704) 
DRTS_PLAFK

>  <affinity>  (704) 
6.26

>  <chembldocid>  (704) 
17662

>  <title>  (704) 
None

>  <reference.pubmed_id>  (704) 
14736247

>  <reference.doi>  (704) 
None

>  <reference.chembl_id>  (704) 
CHEMBL1138835

>  <reference.journal>  (704) 
J. Med. Chem.

>  <reference.year>  (704) 
2004

$$$$

     RDKit          3D

 18 19  0  0  0  0  0  0  0  0999 V2000
    3.2684    3.2420    0.1488 N   0  0  0  0  0  0  0  0  0  0  0  0
    2.1486    2.3314    0.0593 C   0  0  0  0  0  0  0  0  0  0  0  0
    1.2044    2.4779   -0.8877 N   0  0  0  0  0  0  0  0  0  0  0  0
    0.1688    1.6344   -0.9606 C   0  0  0  0  0  0  0  0  0  0  0  0
   -0.8525    1.7746   -1.9667 N   0  0  0  0  0  0  0  0  0  0  0  0
    0.0151    0.5814   -0.0789 C   0  0  0  0  0  0  0  0  0  0  0  0
   -1.1784   -0.2619   -0.1386 C   0  0  0  0  0  0  0  0  0  0  0  0
   -1.4883   -1.0089   -1.2148 C   0  0  0  0  0  0  0  0  0  0  0  0
   -2.6090   -1.8159   -1.2550 C   0  0  0  0  0  0  0  0  0  0  0  0
   -3.4748   -1.8850   -0.1612 C   0  0  0  0  0  0  0  0  0  0  0  0
   -3.1719   -1.1290    0.9449 C   0  0  0  0  0  0  0  0  0  0  0  0
   -2.0389   -0.3187    0.9737 C   0  0  0  0  0  0  0  0  0  0  0  0
    0.9805    0.4218    0.8946 C   0  0  0  0  0  0  0  0  0  0  0  0
    0.9135   -0.6920    1.8511 C   0  0  0  0  0  0  0  0  0  0  0  0
    1.5139   -1.9660    1.4932 C   0  0  0  0  0  0  0  0  0  0  0  0
    1.1456   -2.6966    0.2823 C   0  0  0  0  0  0  0  0  0  0  0  0
    1.4420   -2.0055   -0.9022 O   0  0  0  0  0  0  0  0  0  0  0  0
    2.0127    1.3160    0.9180 N   0  0  0  0  0  0  0  0  0  0  0  0
  1  2  1  0
  2  3  2  0
  3  4  1  0
  4  5  1  0
  4  6  2  0
  6  7  1  0
  7  8  2  0
  8  9  1  0
  9 10  2  0
 10 11  1  0
 11 12  2  0
  6 13  1  0
 13 14  1  0
 14 15  1  0
 15 16  1  0
 16 17  1  0
 13 18  2  0
 18  2  1  0
 12  7  1  0
M  END
>  <zinc_id>  (705) 
ZINC000013559291

>  <ortholog_name>  (705) 
DRTS_PLAFK

>  <gene_name>  (705) 
DRTS_PLAFK

>  <affinity>  (705) 
7.23

>  <chembldocid>  (705) 
17662

>  <title>  (705) 
None

>  <reference.pubmed_id>  (705) 
14736247

>  <reference.doi>  (705) 
None

>  <reference.chembl_id>  (705) 
CHEMBL1138835

>  <reference.journal>  (705) 
J. Med. Chem.

>  <reference.year>  (705) 
2004

$$$$

     RDKit          3D

 18 19  0  0  0  0  0  0  0  0999 V2000
    3.2684    3.2420    0.1488 N   0  0  0  0  0  0  0  0  0  0  0  0
    2.1486    2.3314    0.0593 C   0  0  0  0  0  0  0  0  0  0  0  0
    1.2044    2.4779   -0.8877 N   0  0  0  0  0  0  0  0  0  0  0  0
    0.1688    1.6344   -0.9606 C   0  0  0  0  0  0  0  0  0  0  0  0
   -0.8525    1.7746   -1.9667 N   0  0  0  0  0  0  0  0  0  0  0  0
    0.0151    0.5814   -0.0789 C   0  0  0  0  0  0  0  0  0  0  0  0
   -1.1784   -0.2619   -0.1386 C   0  0  0  0  0  0  0  0  0  0  0  0
   -1.4883   -1.0089   -1.2148 C   0  0  0  0  0  0  0  0  0  0  0  0
   -2.6090   -1.8159   -1.2550 C   0  0  0  0  0  0  0  0  0  0  0  0
   -3.4748   -1.8850   -0.1612 C   0  0  0  0  0  0  0  0  0  0  0  0
   -3.1719   -1.1290    0.9449 C   0  0  0  0  0  0  0  0  0  0  0  0
   -2.0389   -0.3187    0.9737 C   0  0  0  0  0  0  0  0  0  0  0  0
    0.9805    0.4218    0.8946 C   0  0  0  0  0  0  0  0  0  0  0  0
    0.9135   -0.6920    1.8511 C   0  0  0  0  0  0  0  0  0  0  0  0
    1.5139   -1.9660    1.4932 C   0  0  0  0  0  0  0  0  0  0  0  0
    1.1456   -2.6966    0.2823 C   0  0  0  0  0  0  0  0  0  0  0  0
    1.4420   -2.0055   -0.9022 O   0  0  0  0  0  0  0  0  0  0  0  0
    2.0127    1.3160    0.9180 N   0  0  0  0  0  0  0  0  0  0  0  0
  1  2  1  0
  2  3  2  0
  3  4  1  0
  4  5  1  0
  4  6  2  0
  6  7  1  0
  7  8  2  0
  8  9  1  0
  9 10  2  0
 10 11  1  0
 11 12  2  0
  6 13  1  0
 13 14  1  0
 14 15  1  0
 15 16  1  0
 16 17  1  0
 13 18  2  0
 18  2  1  0
 12  7  1  0
M  END
>  <zinc_id>  (706) 
ZINC000013559291

>  <ortholog_name>  (706) 
DRTS_PLAFK

>  <gene_name>  (706) 
DRTS_PLAFK

>  <affinity>  (706) 
7.07

>  <chembldocid>  (706) 
17662

>  <title>  (706) 
None

>  <reference.pubmed_id>  (706) 
14736247

>  <reference.doi>  (706) 
None

>  <reference.chembl_id>  (706) 
CHEMBL1138835

>  <reference.journal>  (706) 
J. Med. Chem.

>  <reference.year>  (706) 
2004

$$$$

     RDKit          3D

 19 20  0  0  0  0  0  0  0  0999 V2000
   -3.6517    3.1505    0.4904 N   0  0  0  0  0  0  0  0  0  0  0  0
   -2.4819    2.3653    0.3453 C   0  0  0  0  0  0  0  0  0  0  0  0
   -1.2958    2.9556    0.1166 N   0  0  0  0  0  0  0  0  0  0  0  0
   -0.1439    2.3137   -0.0344 C   0  0  0  0  0  0  0  0  0  0  0  0
    1.1073    2.9527   -0.2767 N   0  0  0  0  0  0  0  0  0  0  0  0
   -0.1772    0.9239    0.0525 C   0  0  0  0  0  0  0  0  0  0  0  0
    1.0193    0.1067   -0.0990 C   0  0  0  0  0  0  0  0  0  0  0  0
    1.4738   -0.2040   -1.3721 C   0  0  0  0  0  0  0  0  0  0  0  0
    2.5970   -0.9711   -1.6022 C   0  0  0  0  0  0  0  0  0  0  0  0
    3.3196   -1.4645   -0.5329 C   0  0  0  0  0  0  0  0  0  0  0  0
    2.8676   -1.1558    0.7479 C   0  0  0  0  0  0  0  0  0  0  0  0
    3.8014   -1.7930    2.0925 Cl  0  0  0  0  0  0  0  0  0  0  0  0
    1.7413   -0.3864    0.9597 C   0  0  0  0  0  0  0  0  0  0  0  0
   -1.3732    0.2817    0.2862 C   0  0  0  0  0  0  0  0  0  0  0  0
   -1.3702   -1.2012    0.3734 C   0  0  0  0  0  0  0  0  0  0  0  0
   -1.2487   -1.8258   -1.0175 C   0  0  0  0  0  0  0  0  0  0  0  0
   -1.2578   -3.3306   -0.7879 C   0  0  0  0  0  0  0  0  0  0  0  0
   -2.4343   -3.7368   -0.1680 O   0  0  0  0  0  0  0  0  0  0  0  0
   -2.4928    1.0192    0.4262 N   0  0  0  0  0  0  0  0  0  0  0  0
  1  2  1  0
  2  3  2  0
  3  4  1  0
  4  5  1  0
  4  6  2  0
  6  7  1  0
  7  8  2  0
  8  9  1  0
  9 10  2  0
 10 11  1  0
 11 12  1  0
 11 13  2  0
  6 14  1  0
 14 15  1  0
 15 16  1  0
 16 17  1  0
 17 18  1  0
 14 19  2  0
 19  2  1  0
 13  7  1  0
M  END
>  <zinc_id>  (707) 
ZINC000013559292

>  <ortholog_name>  (707) 
DRTS_PLAFK

>  <gene_name>  (707) 
DRTS_PLAFK

>  <affinity>  (707) 
5.96

>  <chembldocid>  (707) 
17662

>  <title>  (707) 
None

>  <reference.pubmed_id>  (707) 
14736247

>  <reference.doi>  (707) 
None

>  <reference.chembl_id>  (707) 
CHEMBL1138835

>  <reference.journal>  (707) 
J. Med. Chem.

>  <reference.year>  (707) 
2004

$$$$

     RDKit          3D

 19 20  0  0  0  0  0  0  0  0999 V2000
   -3.6517    3.1505    0.4904 N   0  0  0  0  0  0  0  0  0  0  0  0
   -2.4819    2.3653    0.3453 C   0  0  0  0  0  0  0  0  0  0  0  0
   -1.2958    2.9556    0.1166 N   0  0  0  0  0  0  0  0  0  0  0  0
   -0.1439    2.3137   -0.0344 C   0  0  0  0  0  0  0  0  0  0  0  0
    1.1073    2.9527   -0.2767 N   0  0  0  0  0  0  0  0  0  0  0  0
   -0.1772    0.9239    0.0525 C   0  0  0  0  0  0  0  0  0  0  0  0
    1.0193    0.1067   -0.0990 C   0  0  0  0  0  0  0  0  0  0  0  0
    1.4738   -0.2040   -1.3721 C   0  0  0  0  0  0  0  0  0  0  0  0
    2.5970   -0.9711   -1.6022 C   0  0  0  0  0  0  0  0  0  0  0  0
    3.3196   -1.4645   -0.5329 C   0  0  0  0  0  0  0  0  0  0  0  0
    2.8676   -1.1558    0.7479 C   0  0  0  0  0  0  0  0  0  0  0  0
    3.8014   -1.7930    2.0925 Cl  0  0  0  0  0  0  0  0  0  0  0  0
    1.7413   -0.3864    0.9597 C   0  0  0  0  0  0  0  0  0  0  0  0
   -1.3732    0.2817    0.2862 C   0  0  0  0  0  0  0  0  0  0  0  0
   -1.3702   -1.2012    0.3734 C   0  0  0  0  0  0  0  0  0  0  0  0
   -1.2487   -1.8258   -1.0175 C   0  0  0  0  0  0  0  0  0  0  0  0
   -1.2578   -3.3306   -0.7879 C   0  0  0  0  0  0  0  0  0  0  0  0
   -2.4343   -3.7368   -0.1680 O   0  0  0  0  0  0  0  0  0  0  0  0
   -2.4928    1.0192    0.4262 N   0  0  0  0  0  0  0  0  0  0  0  0
  1  2  1  0
  2  3  2  0
  3  4  1  0
  4  5  1  0
  4  6  2  0
  6  7  1  0
  7  8  2  0
  8  9  1  0
  9 10  2  0
 10 11  1  0
 11 12  1  0
 11 13  2  0
  6 14  1  0
 14 15  1  0
 15 16  1  0
 16 17  1  0
 17 18  1  0
 14 19  2  0
 19  2  1  0
 13  7  1  0
M  END
>  <zinc_id>  (708) 
ZINC000013559292

>  <ortholog_name>  (708) 
DRTS_PLAFK

>  <gene_name>  (708) 
DRTS_PLAFK

>  <affinity>  (708) 
5.72

>  <chembldocid>  (708) 
17662

>  <title>  (708) 
None

>  <reference.pubmed_id>  (708) 
14736247

>  <reference.doi>  (708) 
None

>  <reference.chembl_id>  (708) 
CHEMBL1138835

>  <reference.journal>  (708) 
J. Med. Chem.

>  <reference.year>  (708) 
2004

$$$$

     RDKit          3D

 19 20  0  0  0  0  0  0  0  0999 V2000
   -3.6517    3.1505    0.4904 N   0  0  0  0  0  0  0  0  0  0  0  0
   -2.4819    2.3653    0.3453 C   0  0  0  0  0  0  0  0  0  0  0  0
   -1.2958    2.9556    0.1166 N   0  0  0  0  0  0  0  0  0  0  0  0
   -0.1439    2.3137   -0.0344 C   0  0  0  0  0  0  0  0  0  0  0  0
    1.1073    2.9527   -0.2767 N   0  0  0  0  0  0  0  0  0  0  0  0
   -0.1772    0.9239    0.0525 C   0  0  0  0  0  0  0  0  0  0  0  0
    1.0193    0.1067   -0.0990 C   0  0  0  0  0  0  0  0  0  0  0  0
    1.4738   -0.2040   -1.3721 C   0  0  0  0  0  0  0  0  0  0  0  0
    2.5970   -0.9711   -1.6022 C   0  0  0  0  0  0  0  0  0  0  0  0
    3.3196   -1.4645   -0.5329 C   0  0  0  0  0  0  0  0  0  0  0  0
    2.8676   -1.1558    0.7479 C   0  0  0  0  0  0  0  0  0  0  0  0
    3.8014   -1.7930    2.0925 Cl  0  0  0  0  0  0  0  0  0  0  0  0
    1.7413   -0.3864    0.9597 C   0  0  0  0  0  0  0  0  0  0  0  0
   -1.3732    0.2817    0.2862 C   0  0  0  0  0  0  0  0  0  0  0  0
   -1.3702   -1.2012    0.3734 C   0  0  0  0  0  0  0  0  0  0  0  0
   -1.2487   -1.8258   -1.0175 C   0  0  0  0  0  0  0  0  0  0  0  0
   -1.2578   -3.3306   -0.7879 C   0  0  0  0  0  0  0  0  0  0  0  0
   -2.4343   -3.7368   -0.1680 O   0  0  0  0  0  0  0  0  0  0  0  0
   -2.4928    1.0192    0.4262 N   0  0  0  0  0  0  0  0  0  0  0  0
  1  2  1  0
  2  3  2  0
  3  4  1  0
  4  5  1  0
  4  6  2  0
  6  7  1  0
  7  8  2  0
  8  9  1  0
  9 10  2  0
 10 11  1  0
 11 12  1  0
 11 13  2  0
  6 14  1  0
 14 15  1  0
 15 16  1  0
 16 17  1  0
 17 18  1  0
 14 19  2  0
 19  2  1  0
 13  7  1  0
M  END
>  <zinc_id>  (709) 
ZINC000013559292

>  <ortholog_name>  (709) 
DRTS_PLAFK

>  <gene_name>  (709) 
DRTS_PLAFK

>  <affinity>  (709) 
8.64

>  <chembldocid>  (709) 
17662

>  <title>  (709) 
None

>  <reference.pubmed_id>  (709) 
14736247

>  <reference.doi>  (709) 
None

>  <reference.chembl_id>  (709) 
CHEMBL1138835

>  <reference.journal>  (709) 
J. Med. Chem.

>  <reference.year>  (709) 
2004

$$$$

     RDKit          3D

 19 20  0  0  0  0  0  0  0  0999 V2000
   -3.6517    3.1505    0.4904 N   0  0  0  0  0  0  0  0  0  0  0  0
   -2.4819    2.3653    0.3453 C   0  0  0  0  0  0  0  0  0  0  0  0
   -1.2958    2.9556    0.1166 N   0  0  0  0  0  0  0  0  0  0  0  0
   -0.1439    2.3137   -0.0344 C   0  0  0  0  0  0  0  0  0  0  0  0
    1.1073    2.9527   -0.2767 N   0  0  0  0  0  0  0  0  0  0  0  0
   -0.1772    0.9239    0.0525 C   0  0  0  0  0  0  0  0  0  0  0  0
    1.0193    0.1067   -0.0990 C   0  0  0  0  0  0  0  0  0  0  0  0
    1.4738   -0.2040   -1.3721 C   0  0  0  0  0  0  0  0  0  0  0  0
    2.5970   -0.9711   -1.6022 C   0  0  0  0  0  0  0  0  0  0  0  0
    3.3196   -1.4645   -0.5329 C   0  0  0  0  0  0  0  0  0  0  0  0
    2.8676   -1.1558    0.7479 C   0  0  0  0  0  0  0  0  0  0  0  0
    3.8014   -1.7930    2.0925 Cl  0  0  0  0  0  0  0  0  0  0  0  0
    1.7413   -0.3864    0.9597 C   0  0  0  0  0  0  0  0  0  0  0  0
   -1.3732    0.2817    0.2862 C   0  0  0  0  0  0  0  0  0  0  0  0
   -1.3702   -1.2012    0.3734 C   0  0  0  0  0  0  0  0  0  0  0  0
   -1.2487   -1.8258   -1.0175 C   0  0  0  0  0  0  0  0  0  0  0  0
   -1.2578   -3.3306   -0.7879 C   0  0  0  0  0  0  0  0  0  0  0  0
   -2.4343   -3.7368   -0.1680 O   0  0  0  0  0  0  0  0  0  0  0  0
   -2.4928    1.0192    0.4262 N   0  0  0  0  0  0  0  0  0  0  0  0
  1  2  1  0
  2  3  2  0
  3  4  1  0
  4  5  1  0
  4  6  2  0
  6  7  1  0
  7  8  2  0
  8  9  1  0
  9 10  2  0
 10 11  1  0
 11 12  1  0
 11 13  2  0
  6 14  1  0
 14 15  1  0
 15 16  1  0
 16 17  1  0
 17 18  1  0
 14 19  2  0
 19  2  1  0
 13  7  1  0
M  END
>  <zinc_id>  (710) 
ZINC000013559292

>  <ortholog_name>  (710) 
DRTS_PLAFK

>  <gene_name>  (710) 
DRTS_PLAFK

>  <affinity>  (710) 
7.54

>  <chembldocid>  (710) 
17662

>  <title>  (710) 
None

>  <reference.pubmed_id>  (710) 
14736247

>  <reference.doi>  (710) 
None

>  <reference.chembl_id>  (710) 
CHEMBL1138835

>  <reference.journal>  (710) 
J. Med. Chem.

>  <reference.year>  (710) 
2004

$$$$

     RDKit          3D

 19 20  0  0  0  0  0  0  0  0999 V2000
   -3.6517    3.1505    0.4904 N   0  0  0  0  0  0  0  0  0  0  0  0
   -2.4819    2.3653    0.3453 C   0  0  0  0  0  0  0  0  0  0  0  0
   -1.2958    2.9556    0.1166 N   0  0  0  0  0  0  0  0  0  0  0  0
   -0.1439    2.3137   -0.0344 C   0  0  0  0  0  0  0  0  0  0  0  0
    1.1073    2.9527   -0.2767 N   0  0  0  0  0  0  0  0  0  0  0  0
   -0.1772    0.9239    0.0525 C   0  0  0  0  0  0  0  0  0  0  0  0
    1.0193    0.1067   -0.0990 C   0  0  0  0  0  0  0  0  0  0  0  0
    1.4738   -0.2040   -1.3721 C   0  0  0  0  0  0  0  0  0  0  0  0
    2.5970   -0.9711   -1.6022 C   0  0  0  0  0  0  0  0  0  0  0  0
    3.3196   -1.4645   -0.5329 C   0  0  0  0  0  0  0  0  0  0  0  0
    2.8676   -1.1558    0.7479 C   0  0  0  0  0  0  0  0  0  0  0  0
    3.8014   -1.7930    2.0925 Cl  0  0  0  0  0  0  0  0  0  0  0  0
    1.7413   -0.3864    0.9597 C   0  0  0  0  0  0  0  0  0  0  0  0
   -1.3732    0.2817    0.2862 C   0  0  0  0  0  0  0  0  0  0  0  0
   -1.3702   -1.2012    0.3734 C   0  0  0  0  0  0  0  0  0  0  0  0
   -1.2487   -1.8258   -1.0175 C   0  0  0  0  0  0  0  0  0  0  0  0
   -1.2578   -3.3306   -0.7879 C   0  0  0  0  0  0  0  0  0  0  0  0
   -2.4343   -3.7368   -0.1680 O   0  0  0  0  0  0  0  0  0  0  0  0
   -2.4928    1.0192    0.4262 N   0  0  0  0  0  0  0  0  0  0  0  0
  1  2  1  0
  2  3  2  0
  3  4  1  0
  4  5  1  0
  4  6  2  0
  6  7  1  0
  7  8  2  0
  8  9  1  0
  9 10  2  0
 10 11  1  0
 11 12  1  0
 11 13  2  0
  6 14  1  0
 14 15  1  0
 15 16  1  0
 16 17  1  0
 17 18  1  0
 14 19  2  0
 19  2  1  0
 13  7  1  0
M  END
>  <zinc_id>  (711) 
ZINC000013559292

>  <ortholog_name>  (711) 
DRTS_PLAFK

>  <gene_name>  (711) 
DRTS_PLAFK

>  <affinity>  (711) 
5.35

>  <chembldocid>  (711) 
17662

>  <title>  (711) 
None

>  <reference.pubmed_id>  (711) 
14736247

>  <reference.doi>  (711) 
None

>  <reference.chembl_id>  (711) 
CHEMBL1138835

>  <reference.journal>  (711) 
J. Med. Chem.

>  <reference.year>  (711) 
2004

$$$$

     RDKit          3D

 19 20  0  0  0  0  0  0  0  0999 V2000
   -3.6517    3.1505    0.4904 N   0  0  0  0  0  0  0  0  0  0  0  0
   -2.4819    2.3653    0.3453 C   0  0  0  0  0  0  0  0  0  0  0  0
   -1.2958    2.9556    0.1166 N   0  0  0  0  0  0  0  0  0  0  0  0
   -0.1439    2.3137   -0.0344 C   0  0  0  0  0  0  0  0  0  0  0  0
    1.1073    2.9527   -0.2767 N   0  0  0  0  0  0  0  0  0  0  0  0
   -0.1772    0.9239    0.0525 C   0  0  0  0  0  0  0  0  0  0  0  0
    1.0193    0.1067   -0.0990 C   0  0  0  0  0  0  0  0  0  0  0  0
    1.4738   -0.2040   -1.3721 C   0  0  0  0  0  0  0  0  0  0  0  0
    2.5970   -0.9711   -1.6022 C   0  0  0  0  0  0  0  0  0  0  0  0
    3.3196   -1.4645   -0.5329 C   0  0  0  0  0  0  0  0  0  0  0  0
    2.8676   -1.1558    0.7479 C   0  0  0  0  0  0  0  0  0  0  0  0
    3.8014   -1.7930    2.0925 Cl  0  0  0  0  0  0  0  0  0  0  0  0
    1.7413   -0.3864    0.9597 C   0  0  0  0  0  0  0  0  0  0  0  0
   -1.3732    0.2817    0.2862 C   0  0  0  0  0  0  0  0  0  0  0  0
   -1.3702   -1.2012    0.3734 C   0  0  0  0  0  0  0  0  0  0  0  0
   -1.2487   -1.8258   -1.0175 C   0  0  0  0  0  0  0  0  0  0  0  0
   -1.2578   -3.3306   -0.7879 C   0  0  0  0  0  0  0  0  0  0  0  0
   -2.4343   -3.7368   -0.1680 O   0  0  0  0  0  0  0  0  0  0  0  0
   -2.4928    1.0192    0.4262 N   0  0  0  0  0  0  0  0  0  0  0  0
  1  2  1  0
  2  3  2  0
  3  4  1  0
  4  5  1  0
  4  6  2  0
  6  7  1  0
  7  8  2  0
  8  9  1  0
  9 10  2  0
 10 11  1  0
 11 12  1  0
 11 13  2  0
  6 14  1  0
 14 15  1  0
 15 16  1  0
 16 17  1  0
 17 18  1  0
 14 19  2  0
 19  2  1  0
 13  7  1  0
M  END
>  <zinc_id>  (712) 
ZINC000013559292

>  <ortholog_name>  (712) 
DRTS_PLAFK

>  <gene_name>  (712) 
DRTS_PLAFK

>  <affinity>  (712) 
7.24

>  <chembldocid>  (712) 
17662

>  <title>  (712) 
None

>  <reference.pubmed_id>  (712) 
14736247

>  <reference.doi>  (712) 
None

>  <reference.chembl_id>  (712) 
CHEMBL1138835

>  <reference.journal>  (712) 
J. Med. Chem.

>  <reference.year>  (712) 
2004

$$$$

     RDKit          3D

 19 20  0  0  0  0  0  0  0  0999 V2000
   -3.6517    3.1505    0.4904 N   0  0  0  0  0  0  0  0  0  0  0  0
   -2.4819    2.3653    0.3453 C   0  0  0  0  0  0  0  0  0  0  0  0
   -1.2958    2.9556    0.1166 N   0  0  0  0  0  0  0  0  0  0  0  0
   -0.1439    2.3137   -0.0344 C   0  0  0  0  0  0  0  0  0  0  0  0
    1.1073    2.9527   -0.2767 N   0  0  0  0  0  0  0  0  0  0  0  0
   -0.1772    0.9239    0.0525 C   0  0  0  0  0  0  0  0  0  0  0  0
    1.0193    0.1067   -0.0990 C   0  0  0  0  0  0  0  0  0  0  0  0
    1.4738   -0.2040   -1.3721 C   0  0  0  0  0  0  0  0  0  0  0  0
    2.5970   -0.9711   -1.6022 C   0  0  0  0  0  0  0  0  0  0  0  0
    3.3196   -1.4645   -0.5329 C   0  0  0  0  0  0  0  0  0  0  0  0
    2.8676   -1.1558    0.7479 C   0  0  0  0  0  0  0  0  0  0  0  0
    3.8014   -1.7930    2.0925 Cl  0  0  0  0  0  0  0  0  0  0  0  0
    1.7413   -0.3864    0.9597 C   0  0  0  0  0  0  0  0  0  0  0  0
   -1.3732    0.2817    0.2862 C   0  0  0  0  0  0  0  0  0  0  0  0
   -1.3702   -1.2012    0.3734 C   0  0  0  0  0  0  0  0  0  0  0  0
   -1.2487   -1.8258   -1.0175 C   0  0  0  0  0  0  0  0  0  0  0  0
   -1.2578   -3.3306   -0.7879 C   0  0  0  0  0  0  0  0  0  0  0  0
   -2.4343   -3.7368   -0.1680 O   0  0  0  0  0  0  0  0  0  0  0  0
   -2.4928    1.0192    0.4262 N   0  0  0  0  0  0  0  0  0  0  0  0
  1  2  1  0
  2  3  2  0
  3  4  1  0
  4  5  1  0
  4  6  2  0
  6  7  1  0
  7  8  2  0
  8  9  1  0
  9 10  2  0
 10 11  1  0
 11 12  1  0
 11 13  2  0
  6 14  1  0
 14 15  1  0
 15 16  1  0
 16 17  1  0
 17 18  1  0
 14 19  2  0
 19  2  1  0
 13  7  1  0
M  END
>  <zinc_id>  (713) 
ZINC000013559292

>  <ortholog_name>  (713) 
DRTS_PLAFK

>  <gene_name>  (713) 
DRTS_PLAFK

>  <affinity>  (713) 
5.21

>  <chembldocid>  (713) 
17662

>  <title>  (713) 
None

>  <reference.pubmed_id>  (713) 
14736247

>  <reference.doi>  (713) 
None

>  <reference.chembl_id>  (713) 
CHEMBL1138835

>  <reference.journal>  (713) 
J. Med. Chem.

>  <reference.year>  (713) 
2004

$$$$

     RDKit          3D

 19 20  0  0  0  0  0  0  0  0999 V2000
   -3.6517    3.1505    0.4904 N   0  0  0  0  0  0  0  0  0  0  0  0
   -2.4819    2.3653    0.3453 C   0  0  0  0  0  0  0  0  0  0  0  0
   -1.2958    2.9556    0.1166 N   0  0  0  0  0  0  0  0  0  0  0  0
   -0.1439    2.3137   -0.0344 C   0  0  0  0  0  0  0  0  0  0  0  0
    1.1073    2.9527   -0.2767 N   0  0  0  0  0  0  0  0  0  0  0  0
   -0.1772    0.9239    0.0525 C   0  0  0  0  0  0  0  0  0  0  0  0
    1.0193    0.1067   -0.0990 C   0  0  0  0  0  0  0  0  0  0  0  0
    1.4738   -0.2040   -1.3721 C   0  0  0  0  0  0  0  0  0  0  0  0
    2.5970   -0.9711   -1.6022 C   0  0  0  0  0  0  0  0  0  0  0  0
    3.3196   -1.4645   -0.5329 C   0  0  0  0  0  0  0  0  0  0  0  0
    2.8676   -1.1558    0.7479 C   0  0  0  0  0  0  0  0  0  0  0  0
    3.8014   -1.7930    2.0925 Cl  0  0  0  0  0  0  0  0  0  0  0  0
    1.7413   -0.3864    0.9597 C   0  0  0  0  0  0  0  0  0  0  0  0
   -1.3732    0.2817    0.2862 C   0  0  0  0  0  0  0  0  0  0  0  0
   -1.3702   -1.2012    0.3734 C   0  0  0  0  0  0  0  0  0  0  0  0
   -1.2487   -1.8258   -1.0175 C   0  0  0  0  0  0  0  0  0  0  0  0
   -1.2578   -3.3306   -0.7879 C   0  0  0  0  0  0  0  0  0  0  0  0
   -2.4343   -3.7368   -0.1680 O   0  0  0  0  0  0  0  0  0  0  0  0
   -2.4928    1.0192    0.4262 N   0  0  0  0  0  0  0  0  0  0  0  0
  1  2  1  0
  2  3  2  0
  3  4  1  0
  4  5  1  0
  4  6  2  0
  6  7  1  0
  7  8  2  0
  8  9  1  0
  9 10  2  0
 10 11  1  0
 11 12  1  0
 11 13  2  0
  6 14  1  0
 14 15  1  0
 15 16  1  0
 16 17  1  0
 17 18  1  0
 14 19  2  0
 19  2  1  0
 13  7  1  0
M  END
>  <zinc_id>  (714) 
ZINC000013559292

>  <ortholog_name>  (714) 
DRTS_PLAFK

>  <gene_name>  (714) 
DRTS_PLAFK

>  <affinity>  (714) 
8.04

>  <chembldocid>  (714) 
17662

>  <title>  (714) 
None

>  <reference.pubmed_id>  (714) 
14736247

>  <reference.doi>  (714) 
None

>  <reference.chembl_id>  (714) 
CHEMBL1138835

>  <reference.journal>  (714) 
J. Med. Chem.

>  <reference.year>  (714) 
2004

$$$$

     RDKit          3D

 21 22  0  0  0  0  0  0  0  0999 V2000
    4.6623   -1.0776    0.8843 C   0  0  0  0  0  0  0  0  0  0  0  0
    3.9870    0.1253    0.3404 C   0  0  0  0  0  0  0  0  0  0  0  0
    4.0239    0.3289   -0.9087 O   0  0  0  0  0  0  0  0  0  0  0  0
    3.3169    1.0391    1.0931 O   0  0  0  0  0  0  0  0  0  0  0  0
    2.6749    2.1702    0.6775 C   0  0  0  0  0  0  0  0  0  0  0  0
    1.5744    2.0678   -0.2426 C   0  0  0  0  0  0  0  0  0  0  0  0
    0.3322    1.4191   -0.0447 C   0  0  0  0  0  0  0  0  0  0  0  0
    0.1714   -0.0126    0.2081 C   0  0  0  0  0  0  0  0  0  0  0  0
    1.0894   -0.8751    0.5909 N   0  0  0  0  0  0  0  0  0  0  0  0
    0.9308   -2.1952    0.7921 C   0  0  0  0  0  0  0  0  0  0  0  0
    2.0097   -3.0340    1.2197 N   0  0  0  0  0  0  0  0  0  0  0  0
   -0.3039   -2.6649    0.5773 N   0  0  0  0  0  0  0  0  0  0  0  0
   -1.2930   -1.8732    0.1910 C   0  0  0  0  0  0  0  0  0  0  0  0
   -2.6045   -2.3973   -0.0127 N   0  0  0  0  0  0  0  0  0  0  0  0
   -1.1504   -0.5204   -0.0220 C   0  0  0  0  0  0  0  0  0  0  0  0
   -2.2107    0.3577   -0.4313 C   0  0  0  0  0  0  0  0  0  0  0  0
   -3.2919    0.6105    0.3728 C   0  0  0  0  0  0  0  0  0  0  0  0
   -4.3062    1.4720    0.0246 C   0  0  0  0  0  0  0  0  0  0  0  0
   -4.2599    2.1405   -1.2048 C   0  0  0  0  0  0  0  0  0  0  0  0
   -3.1636    1.8865   -2.0216 C   0  0  0  0  0  0  0  0  0  0  0  0
   -2.1889    1.0329   -1.6450 C   0  0  0  0  0  0  0  0  0  0  0  0
  1  2  1  0
  2  3  2  0
  2  4  1  0
  4  5  1  0
  5  6  1  0
  6  7  1  0
  7  8  1  0
  8  9  2  0
  9 10  1  0
 10 11  1  0
 10 12  2  0
 12 13  1  0
 13 14  1  0
 13 15  2  0
 15 16  1  0
 16 17  2  0
 17 18  1  0
 18 19  2  0
 19 20  1  0
 20 21  2  0
 15  8  1  0
 21 16  1  0
M  END
>  <zinc_id>  (715) 
ZINC000013559293

>  <ortholog_name>  (715) 
DRTS_PLAFK

>  <gene_name>  (715) 
DRTS_PLAFK

>  <affinity>  (715) 
7.97

>  <chembldocid>  (715) 
17662

>  <title>  (715) 
None

>  <reference.pubmed_id>  (715) 
14736247

>  <reference.doi>  (715) 
None

>  <reference.chembl_id>  (715) 
CHEMBL1138835

>  <reference.journal>  (715) 
J. Med. Chem.

>  <reference.year>  (715) 
2004

$$$$

     RDKit          3D

 21 22  0  0  0  0  0  0  0  0999 V2000
    4.6623   -1.0776    0.8843 C   0  0  0  0  0  0  0  0  0  0  0  0
    3.9870    0.1253    0.3404 C   0  0  0  0  0  0  0  0  0  0  0  0
    4.0239    0.3289   -0.9087 O   0  0  0  0  0  0  0  0  0  0  0  0
    3.3169    1.0391    1.0931 O   0  0  0  0  0  0  0  0  0  0  0  0
    2.6749    2.1702    0.6775 C   0  0  0  0  0  0  0  0  0  0  0  0
    1.5744    2.0678   -0.2426 C   0  0  0  0  0  0  0  0  0  0  0  0
    0.3322    1.4191   -0.0447 C   0  0  0  0  0  0  0  0  0  0  0  0
    0.1714   -0.0126    0.2081 C   0  0  0  0  0  0  0  0  0  0  0  0
    1.0894   -0.8751    0.5909 N   0  0  0  0  0  0  0  0  0  0  0  0
    0.9308   -2.1952    0.7921 C   0  0  0  0  0  0  0  0  0  0  0  0
    2.0097   -3.0340    1.2197 N   0  0  0  0  0  0  0  0  0  0  0  0
   -0.3039   -2.6649    0.5773 N   0  0  0  0  0  0  0  0  0  0  0  0
   -1.2930   -1.8732    0.1910 C   0  0  0  0  0  0  0  0  0  0  0  0
   -2.6045   -2.3973   -0.0127 N   0  0  0  0  0  0  0  0  0  0  0  0
   -1.1504   -0.5204   -0.0220 C   0  0  0  0  0  0  0  0  0  0  0  0
   -2.2107    0.3577   -0.4313 C   0  0  0  0  0  0  0  0  0  0  0  0
   -3.2919    0.6105    0.3728 C   0  0  0  0  0  0  0  0  0  0  0  0
   -4.3062    1.4720    0.0246 C   0  0  0  0  0  0  0  0  0  0  0  0
   -4.2599    2.1405   -1.2048 C   0  0  0  0  0  0  0  0  0  0  0  0
   -3.1636    1.8865   -2.0216 C   0  0  0  0  0  0  0  0  0  0  0  0
   -2.1889    1.0329   -1.6450 C   0  0  0  0  0  0  0  0  0  0  0  0
  1  2  1  0
  2  3  2  0
  2  4  1  0
  4  5  1  0
  5  6  1  0
  6  7  1  0
  7  8  1  0
  8  9  2  0
  9 10  1  0
 10 11  1  0
 10 12  2  0
 12 13  1  0
 13 14  1  0
 13 15  2  0
 15 16  1  0
 16 17  2  0
 17 18  1  0
 18 19  2  0
 19 20  1  0
 20 21  2  0
 15  8  1  0
 21 16  1  0
M  END
>  <zinc_id>  (716) 
ZINC000013559293

>  <ortholog_name>  (716) 
DRTS_PLAFK

>  <gene_name>  (716) 
DRTS_PLAFK

>  <affinity>  (716) 
7.74

>  <chembldocid>  (716) 
17662

>  <title>  (716) 
None

>  <reference.pubmed_id>  (716) 
14736247

>  <reference.doi>  (716) 
None

>  <reference.chembl_id>  (716) 
CHEMBL1138835

>  <reference.journal>  (716) 
J. Med. Chem.

>  <reference.year>  (716) 
2004

$$$$

     RDKit          3D

 21 22  0  0  0  0  0  0  0  0999 V2000
    4.6623   -1.0776    0.8843 C   0  0  0  0  0  0  0  0  0  0  0  0
    3.9870    0.1253    0.3404 C   0  0  0  0  0  0  0  0  0  0  0  0
    4.0239    0.3289   -0.9087 O   0  0  0  0  0  0  0  0  0  0  0  0
    3.3169    1.0391    1.0931 O   0  0  0  0  0  0  0  0  0  0  0  0
    2.6749    2.1702    0.6775 C   0  0  0  0  0  0  0  0  0  0  0  0
    1.5744    2.0678   -0.2426 C   0  0  0  0  0  0  0  0  0  0  0  0
    0.3322    1.4191   -0.0447 C   0  0  0  0  0  0  0  0  0  0  0  0
    0.1714   -0.0126    0.2081 C   0  0  0  0  0  0  0  0  0  0  0  0
    1.0894   -0.8751    0.5909 N   0  0  0  0  0  0  0  0  0  0  0  0
    0.9308   -2.1952    0.7921 C   0  0  0  0  0  0  0  0  0  0  0  0
    2.0097   -3.0340    1.2197 N   0  0  0  0  0  0  0  0  0  0  0  0
   -0.3039   -2.6649    0.5773 N   0  0  0  0  0  0  0  0  0  0  0  0
   -1.2930   -1.8732    0.1910 C   0  0  0  0  0  0  0  0  0  0  0  0
   -2.6045   -2.3973   -0.0127 N   0  0  0  0  0  0  0  0  0  0  0  0
   -1.1504   -0.5204   -0.0220 C   0  0  0  0  0  0  0  0  0  0  0  0
   -2.2107    0.3577   -0.4313 C   0  0  0  0  0  0  0  0  0  0  0  0
   -3.2919    0.6105    0.3728 C   0  0  0  0  0  0  0  0  0  0  0  0
   -4.3062    1.4720    0.0246 C   0  0  0  0  0  0  0  0  0  0  0  0
   -4.2599    2.1405   -1.2048 C   0  0  0  0  0  0  0  0  0  0  0  0
   -3.1636    1.8865   -2.0216 C   0  0  0  0  0  0  0  0  0  0  0  0
   -2.1889    1.0329   -1.6450 C   0  0  0  0  0  0  0  0  0  0  0  0
  1  2  1  0
  2  3  2  0
  2  4  1  0
  4  5  1  0
  5  6  1  0
  6  7  1  0
  7  8  1  0
  8  9  2  0
  9 10  1  0
 10 11  1  0
 10 12  2  0
 12 13  1  0
 13 14  1  0
 13 15  2  0
 15 16  1  0
 16 17  2  0
 17 18  1  0
 18 19  2  0
 19 20  1  0
 20 21  2  0
 15  8  1  0
 21 16  1  0
M  END
>  <zinc_id>  (717) 
ZINC000013559293

>  <ortholog_name>  (717) 
DRTS_PLAFK

>  <gene_name>  (717) 
DRTS_PLAFK

>  <affinity>  (717) 
6.63

>  <chembldocid>  (717) 
17662

>  <title>  (717) 
None

>  <reference.pubmed_id>  (717) 
14736247

>  <reference.doi>  (717) 
None

>  <reference.chembl_id>  (717) 
CHEMBL1138835

>  <reference.journal>  (717) 
J. Med. Chem.

>  <reference.year>  (717) 
2004

$$$$

     RDKit          3D

 21 22  0  0  0  0  0  0  0  0999 V2000
    4.6623   -1.0776    0.8843 C   0  0  0  0  0  0  0  0  0  0  0  0
    3.9870    0.1253    0.3404 C   0  0  0  0  0  0  0  0  0  0  0  0
    4.0239    0.3289   -0.9087 O   0  0  0  0  0  0  0  0  0  0  0  0
    3.3169    1.0391    1.0931 O   0  0  0  0  0  0  0  0  0  0  0  0
    2.6749    2.1702    0.6775 C   0  0  0  0  0  0  0  0  0  0  0  0
    1.5744    2.0678   -0.2426 C   0  0  0  0  0  0  0  0  0  0  0  0
    0.3322    1.4191   -0.0447 C   0  0  0  0  0  0  0  0  0  0  0  0
    0.1714   -0.0126    0.2081 C   0  0  0  0  0  0  0  0  0  0  0  0
    1.0894   -0.8751    0.5909 N   0  0  0  0  0  0  0  0  0  0  0  0
    0.9308   -2.1952    0.7921 C   0  0  0  0  0  0  0  0  0  0  0  0
    2.0097   -3.0340    1.2197 N   0  0  0  0  0  0  0  0  0  0  0  0
   -0.3039   -2.6649    0.5773 N   0  0  0  0  0  0  0  0  0  0  0  0
   -1.2930   -1.8732    0.1910 C   0  0  0  0  0  0  0  0  0  0  0  0
   -2.6045   -2.3973   -0.0127 N   0  0  0  0  0  0  0  0  0  0  0  0
   -1.1504   -0.5204   -0.0220 C   0  0  0  0  0  0  0  0  0  0  0  0
   -2.2107    0.3577   -0.4313 C   0  0  0  0  0  0  0  0  0  0  0  0
   -3.2919    0.6105    0.3728 C   0  0  0  0  0  0  0  0  0  0  0  0
   -4.3062    1.4720    0.0246 C   0  0  0  0  0  0  0  0  0  0  0  0
   -4.2599    2.1405   -1.2048 C   0  0  0  0  0  0  0  0  0  0  0  0
   -3.1636    1.8865   -2.0216 C   0  0  0  0  0  0  0  0  0  0  0  0
   -2.1889    1.0329   -1.6450 C   0  0  0  0  0  0  0  0  0  0  0  0
  1  2  1  0
  2  3  2  0
  2  4  1  0
  4  5  1  0
  5  6  1  0
  6  7  1  0
  7  8  1  0
  8  9  2  0
  9 10  1  0
 10 11  1  0
 10 12  2  0
 12 13  1  0
 13 14  1  0
 13 15  2  0
 15 16  1  0
 16 17  2  0
 17 18  1  0
 18 19  2  0
 19 20  1  0
 20 21  2  0
 15  8  1  0
 21 16  1  0
M  END
>  <zinc_id>  (718) 
ZINC000013559293

>  <ortholog_name>  (718) 
DRTS_PLAFK

>  <gene_name>  (718) 
DRTS_PLAFK

>  <affinity>  (718) 
8.30

>  <chembldocid>  (718) 
17662

>  <title>  (718) 
None

>  <reference.pubmed_id>  (718) 
14736247

>  <reference.doi>  (718) 
None

>  <reference.chembl_id>  (718) 
CHEMBL1138835

>  <reference.journal>  (718) 
J. Med. Chem.

>  <reference.year>  (718) 
2004

$$$$

     RDKit          3D

 22 23  0  0  0  0  0  0  0  0999 V2000
    5.1055    1.9131    0.6318 C   0  0  0  0  0  0  0  0  0  0  0  0
    3.8507    1.1200    0.5079 C   0  0  0  0  0  0  0  0  0  0  0  0
    3.6128    0.1738    1.2793 O   0  0  0  0  0  0  0  0  0  0  0  0
    2.9721    1.4911   -0.5039 O   0  0  0  0  0  0  0  0  0  0  0  0
    1.7808    0.7663   -0.6494 C   0  0  0  0  0  0  0  0  0  0  0  0
    2.0745   -0.6488   -0.9193 C   0  0  0  0  0  0  0  0  0  0  0  0
    0.9323   -1.5483   -1.0992 C   0  0  0  0  0  0  0  0  0  0  0  0
   -0.0293   -1.7092   -0.0054 C   0  0  0  0  0  0  0  0  0  0  0  0
    0.1369   -2.7680    0.8737 N   0  0  0  0  0  0  0  0  0  0  0  0
   -0.6926   -2.9688    1.8975 C   0  0  0  0  0  0  0  0  0  0  0  0
   -0.5717   -4.0306    2.8246 N   0  0  0  0  0  0  0  0  0  0  0  0
   -1.7304   -2.1197    2.0933 N   0  0  0  0  0  0  0  0  0  0  0  0
   -1.9283   -1.0786    1.2630 C   0  0  0  0  0  0  0  0  0  0  0  0
   -3.0062   -0.1686    1.4395 N   0  0  0  0  0  0  0  0  0  0  0  0
   -1.0633   -0.8509    0.1768 C   0  0  0  0  0  0  0  0  0  0  0  0
   -1.3276    0.2697   -0.6884 C   0  0  0  0  0  0  0  0  0  0  0  0
   -1.6636    0.0703   -2.0236 C   0  0  0  0  0  0  0  0  0  0  0  0
   -1.9618    1.1266   -2.8372 C   0  0  0  0  0  0  0  0  0  0  0  0
   -1.9501    2.4217   -2.4037 C   0  0  0  0  0  0  0  0  0  0  0  0
   -1.6145    2.6440   -1.0631 C   0  0  0  0  0  0  0  0  0  0  0  0
   -1.6067    4.3122   -0.5312 Cl  0  0  0  0  0  0  0  0  0  0  0  0
   -1.3196    1.5826   -0.2628 C   0  0  0  0  0  0  0  0  0  0  0  0
  1  2  1  0
  2  3  2  0
  2  4  1  0
  4  5  1  0
  5  6  1  0
  6  7  1  0
  7  8  1  0
  8  9  2  0
  9 10  1  0
 10 11  1  0
 10 12  2  0
 12 13  1  0
 13 14  1  0
 13 15  2  0
 15 16  1  0
 16 17  2  0
 17 18  1  0
 18 19  2  0
 19 20  1  0
 20 21  1  0
 20 22  2  0
 15  8  1  0
 22 16  1  0
M  END
>  <zinc_id>  (719) 
ZINC000013559294

>  <ortholog_name>  (719) 
DRTS_PLAFK

>  <gene_name>  (719) 
DRTS_PLAFK

>  <affinity>  (719) 
8.74

>  <chembldocid>  (719) 
17662

>  <title>  (719) 
None

>  <reference.pubmed_id>  (719) 
14736247

>  <reference.doi>  (719) 
None

>  <reference.chembl_id>  (719) 
CHEMBL1138835

>  <reference.journal>  (719) 
J. Med. Chem.

>  <reference.year>  (719) 
2004

$$$$

     RDKit          3D

 22 23  0  0  0  0  0  0  0  0999 V2000
    5.1055    1.9131    0.6318 C   0  0  0  0  0  0  0  0  0  0  0  0
    3.8507    1.1200    0.5079 C   0  0  0  0  0  0  0  0  0  0  0  0
    3.6128    0.1738    1.2793 O   0  0  0  0  0  0  0  0  0  0  0  0
    2.9721    1.4911   -0.5039 O   0  0  0  0  0  0  0  0  0  0  0  0
    1.7808    0.7663   -0.6494 C   0  0  0  0  0  0  0  0  0  0  0  0
    2.0745   -0.6488   -0.9193 C   0  0  0  0  0  0  0  0  0  0  0  0
    0.9323   -1.5483   -1.0992 C   0  0  0  0  0  0  0  0  0  0  0  0
   -0.0293   -1.7092   -0.0054 C   0  0  0  0  0  0  0  0  0  0  0  0
    0.1369   -2.7680    0.8737 N   0  0  0  0  0  0  0  0  0  0  0  0
   -0.6926   -2.9688    1.8975 C   0  0  0  0  0  0  0  0  0  0  0  0
   -0.5717   -4.0306    2.8246 N   0  0  0  0  0  0  0  0  0  0  0  0
   -1.7304   -2.1197    2.0933 N   0  0  0  0  0  0  0  0  0  0  0  0
   -1.9283   -1.0786    1.2630 C   0  0  0  0  0  0  0  0  0  0  0  0
   -3.0062   -0.1686    1.4395 N   0  0  0  0  0  0  0  0  0  0  0  0
   -1.0633   -0.8509    0.1768 C   0  0  0  0  0  0  0  0  0  0  0  0
   -1.3276    0.2697   -0.6884 C   0  0  0  0  0  0  0  0  0  0  0  0
   -1.6636    0.0703   -2.0236 C   0  0  0  0  0  0  0  0  0  0  0  0
   -1.9618    1.1266   -2.8372 C   0  0  0  0  0  0  0  0  0  0  0  0
   -1.9501    2.4217   -2.4037 C   0  0  0  0  0  0  0  0  0  0  0  0
   -1.6145    2.6440   -1.0631 C   0  0  0  0  0  0  0  0  0  0  0  0
   -1.6067    4.3122   -0.5312 Cl  0  0  0  0  0  0  0  0  0  0  0  0
   -1.3196    1.5826   -0.2628 C   0  0  0  0  0  0  0  0  0  0  0  0
  1  2  1  0
  2  3  2  0
  2  4  1  0
  4  5  1  0
  5  6  1  0
  6  7  1  0
  7  8  1  0
  8  9  2  0
  9 10  1  0
 10 11  1  0
 10 12  2  0
 12 13  1  0
 13 14  1  0
 13 15  2  0
 15 16  1  0
 16 17  2  0
 17 18  1  0
 18 19  2  0
 19 20  1  0
 20 21  1  0
 20 22  2  0
 15  8  1  0
 22 16  1  0
M  END
>  <zinc_id>  (720) 
ZINC000013559294

>  <ortholog_name>  (720) 
DRTS_PLAFK

>  <gene_name>  (720) 
DRTS_PLAFK

>  <affinity>  (720) 
5.80

>  <chembldocid>  (720) 
17662

>  <title>  (720) 
None

>  <reference.pubmed_id>  (720) 
14736247

>  <reference.doi>  (720) 
None

>  <reference.chembl_id>  (720) 
CHEMBL1138835

>  <reference.journal>  (720) 
J. Med. Chem.

>  <reference.year>  (720) 
2004

$$$$

     RDKit          3D

 22 23  0  0  0  0  0  0  0  0999 V2000
    5.1055    1.9131    0.6318 C   0  0  0  0  0  0  0  0  0  0  0  0
    3.8507    1.1200    0.5079 C   0  0  0  0  0  0  0  0  0  0  0  0
    3.6128    0.1738    1.2793 O   0  0  0  0  0  0  0  0  0  0  0  0
    2.9721    1.4911   -0.5039 O   0  0  0  0  0  0  0  0  0  0  0  0
    1.7808    0.7663   -0.6494 C   0  0  0  0  0  0  0  0  0  0  0  0
    2.0745   -0.6488   -0.9193 C   0  0  0  0  0  0  0  0  0  0  0  0
    0.9323   -1.5483   -1.0992 C   0  0  0  0  0  0  0  0  0  0  0  0
   -0.0293   -1.7092   -0.0054 C   0  0  0  0  0  0  0  0  0  0  0  0
    0.1369   -2.7680    0.8737 N   0  0  0  0  0  0  0  0  0  0  0  0
   -0.6926   -2.9688    1.8975 C   0  0  0  0  0  0  0  0  0  0  0  0
   -0.5717   -4.0306    2.8246 N   0  0  0  0  0  0  0  0  0  0  0  0
   -1.7304   -2.1197    2.0933 N   0  0  0  0  0  0  0  0  0  0  0  0
   -1.9283   -1.0786    1.2630 C   0  0  0  0  0  0  0  0  0  0  0  0
   -3.0062   -0.1686    1.4395 N   0  0  0  0  0  0  0  0  0  0  0  0
   -1.0633   -0.8509    0.1768 C   0  0  0  0  0  0  0  0  0  0  0  0
   -1.3276    0.2697   -0.6884 C   0  0  0  0  0  0  0  0  0  0  0  0
   -1.6636    0.0703   -2.0236 C   0  0  0  0  0  0  0  0  0  0  0  0
   -1.9618    1.1266   -2.8372 C   0  0  0  0  0  0  0  0  0  0  0  0
   -1.9501    2.4217   -2.4037 C   0  0  0  0  0  0  0  0  0  0  0  0
   -1.6145    2.6440   -1.0631 C   0  0  0  0  0  0  0  0  0  0  0  0
   -1.6067    4.3122   -0.5312 Cl  0  0  0  0  0  0  0  0  0  0  0  0
   -1.3196    1.5826   -0.2628 C   0  0  0  0  0  0  0  0  0  0  0  0
  1  2  1  0
  2  3  2  0
  2  4  1  0
  4  5  1  0
  5  6  1  0
  6  7  1  0
  7  8  1  0
  8  9  2  0
  9 10  1  0
 10 11  1  0
 10 12  2  0
 12 13  1  0
 13 14  1  0
 13 15  2  0
 15 16  1  0
 16 17  2  0
 17 18  1  0
 18 19  2  0
 19 20  1  0
 20 21  1  0
 20 22  2  0
 15  8  1  0
 22 16  1  0
M  END
>  <zinc_id>  (721) 
ZINC000013559294

>  <ortholog_name>  (721) 
DRTS_PLAFK

>  <gene_name>  (721) 
DRTS_PLAFK

>  <affinity>  (721) 
5.74

>  <chembldocid>  (721) 
17662

>  <title>  (721) 
None

>  <reference.pubmed_id>  (721) 
14736247

>  <reference.doi>  (721) 
None

>  <reference.chembl_id>  (721) 
CHEMBL1138835

>  <reference.journal>  (721) 
J. Med. Chem.

>  <reference.year>  (721) 
2004

$$$$

     RDKit          3D

 22 23  0  0  0  0  0  0  0  0999 V2000
    5.1055    1.9131    0.6318 C   0  0  0  0  0  0  0  0  0  0  0  0
    3.8507    1.1200    0.5079 C   0  0  0  0  0  0  0  0  0  0  0  0
    3.6128    0.1738    1.2793 O   0  0  0  0  0  0  0  0  0  0  0  0
    2.9721    1.4911   -0.5039 O   0  0  0  0  0  0  0  0  0  0  0  0
    1.7808    0.7663   -0.6494 C   0  0  0  0  0  0  0  0  0  0  0  0
    2.0745   -0.6488   -0.9193 C   0  0  0  0  0  0  0  0  0  0  0  0
    0.9323   -1.5483   -1.0992 C   0  0  0  0  0  0  0  0  0  0  0  0
   -0.0293   -1.7092   -0.0054 C   0  0  0  0  0  0  0  0  0  0  0  0
    0.1369   -2.7680    0.8737 N   0  0  0  0  0  0  0  0  0  0  0  0
   -0.6926   -2.9688    1.8975 C   0  0  0  0  0  0  0  0  0  0  0  0
   -0.5717   -4.0306    2.8246 N   0  0  0  0  0  0  0  0  0  0  0  0
   -1.7304   -2.1197    2.0933 N   0  0  0  0  0  0  0  0  0  0  0  0
   -1.9283   -1.0786    1.2630 C   0  0  0  0  0  0  0  0  0  0  0  0
   -3.0062   -0.1686    1.4395 N   0  0  0  0  0  0  0  0  0  0  0  0
   -1.0633   -0.8509    0.1768 C   0  0  0  0  0  0  0  0  0  0  0  0
   -1.3276    0.2697   -0.6884 C   0  0  0  0  0  0  0  0  0  0  0  0
   -1.6636    0.0703   -2.0236 C   0  0  0  0  0  0  0  0  0  0  0  0
   -1.9618    1.1266   -2.8372 C   0  0  0  0  0  0  0  0  0  0  0  0
   -1.9501    2.4217   -2.4037 C   0  0  0  0  0  0  0  0  0  0  0  0
   -1.6145    2.6440   -1.0631 C   0  0  0  0  0  0  0  0  0  0  0  0
   -1.6067    4.3122   -0.5312 Cl  0  0  0  0  0  0  0  0  0  0  0  0
   -1.3196    1.5826   -0.2628 C   0  0  0  0  0  0  0  0  0  0  0  0
  1  2  1  0
  2  3  2  0
  2  4  1  0
  4  5  1  0
  5  6  1  0
  6  7  1  0
  7  8  1  0
  8  9  2  0
  9 10  1  0
 10 11  1  0
 10 12  2  0
 12 13  1  0
 13 14  1  0
 13 15  2  0
 15 16  1  0
 16 17  2  0
 17 18  1  0
 18 19  2  0
 19 20  1  0
 20 21  1  0
 20 22  2  0
 15  8  1  0
 22 16  1  0
M  END
>  <zinc_id>  (722) 
ZINC000013559294

>  <ortholog_name>  (722) 
DRTS_PLAFK

>  <gene_name>  (722) 
DRTS_PLAFK

>  <affinity>  (722) 
5.68

>  <chembldocid>  (722) 
17662

>  <title>  (722) 
None

>  <reference.pubmed_id>  (722) 
14736247

>  <reference.doi>  (722) 
None

>  <reference.chembl_id>  (722) 
CHEMBL1138835

>  <reference.journal>  (722) 
J. Med. Chem.

>  <reference.year>  (722) 
2004

$$$$

     RDKit          3D

 22 23  0  0  0  0  0  0  0  0999 V2000
    5.1055    1.9131    0.6318 C   0  0  0  0  0  0  0  0  0  0  0  0
    3.8507    1.1200    0.5079 C   0  0  0  0  0  0  0  0  0  0  0  0
    3.6128    0.1738    1.2793 O   0  0  0  0  0  0  0  0  0  0  0  0
    2.9721    1.4911   -0.5039 O   0  0  0  0  0  0  0  0  0  0  0  0
    1.7808    0.7663   -0.6494 C   0  0  0  0  0  0  0  0  0  0  0  0
    2.0745   -0.6488   -0.9193 C   0  0  0  0  0  0  0  0  0  0  0  0
    0.9323   -1.5483   -1.0992 C   0  0  0  0  0  0  0  0  0  0  0  0
   -0.0293   -1.7092   -0.0054 C   0  0  0  0  0  0  0  0  0  0  0  0
    0.1369   -2.7680    0.8737 N   0  0  0  0  0  0  0  0  0  0  0  0
   -0.6926   -2.9688    1.8975 C   0  0  0  0  0  0  0  0  0  0  0  0
   -0.5717   -4.0306    2.8246 N   0  0  0  0  0  0  0  0  0  0  0  0
   -1.7304   -2.1197    2.0933 N   0  0  0  0  0  0  0  0  0  0  0  0
   -1.9283   -1.0786    1.2630 C   0  0  0  0  0  0  0  0  0  0  0  0
   -3.0062   -0.1686    1.4395 N   0  0  0  0  0  0  0  0  0  0  0  0
   -1.0633   -0.8509    0.1768 C   0  0  0  0  0  0  0  0  0  0  0  0
   -1.3276    0.2697   -0.6884 C   0  0  0  0  0  0  0  0  0  0  0  0
   -1.6636    0.0703   -2.0236 C   0  0  0  0  0  0  0  0  0  0  0  0
   -1.9618    1.1266   -2.8372 C   0  0  0  0  0  0  0  0  0  0  0  0
   -1.9501    2.4217   -2.4037 C   0  0  0  0  0  0  0  0  0  0  0  0
   -1.6145    2.6440   -1.0631 C   0  0  0  0  0  0  0  0  0  0  0  0
   -1.6067    4.3122   -0.5312 Cl  0  0  0  0  0  0  0  0  0  0  0  0
   -1.3196    1.5826   -0.2628 C   0  0  0  0  0  0  0  0  0  0  0  0
  1  2  1  0
  2  3  2  0
  2  4  1  0
  4  5  1  0
  5  6  1  0
  6  7  1  0
  7  8  1  0
  8  9  2  0
  9 10  1  0
 10 11  1  0
 10 12  2  0
 12 13  1  0
 13 14  1  0
 13 15  2  0
 15 16  1  0
 16 17  2  0
 17 18  1  0
 18 19  2  0
 19 20  1  0
 20 21  1  0
 20 22  2  0
 15  8  1  0
 22 16  1  0
M  END
>  <zinc_id>  (723) 
ZINC000013559294

>  <ortholog_name>  (723) 
DRTS_PLAFK

>  <gene_name>  (723) 
DRTS_PLAFK

>  <affinity>  (723) 
8.51

>  <chembldocid>  (723) 
17662

>  <title>  (723) 
None

>  <reference.pubmed_id>  (723) 
14736247

>  <reference.doi>  (723) 
None

>  <reference.chembl_id>  (723) 
CHEMBL1138835

>  <reference.journal>  (723) 
J. Med. Chem.

>  <reference.year>  (723) 
2004

$$$$

     RDKit          3D

 22 23  0  0  0  0  0  0  0  0999 V2000
    5.1055    1.9131    0.6318 C   0  0  0  0  0  0  0  0  0  0  0  0
    3.8507    1.1200    0.5079 C   0  0  0  0  0  0  0  0  0  0  0  0
    3.6128    0.1738    1.2793 O   0  0  0  0  0  0  0  0  0  0  0  0
    2.9721    1.4911   -0.5039 O   0  0  0  0  0  0  0  0  0  0  0  0
    1.7808    0.7663   -0.6494 C   0  0  0  0  0  0  0  0  0  0  0  0
    2.0745   -0.6488   -0.9193 C   0  0  0  0  0  0  0  0  0  0  0  0
    0.9323   -1.5483   -1.0992 C   0  0  0  0  0  0  0  0  0  0  0  0
   -0.0293   -1.7092   -0.0054 C   0  0  0  0  0  0  0  0  0  0  0  0
    0.1369   -2.7680    0.8737 N   0  0  0  0  0  0  0  0  0  0  0  0
   -0.6926   -2.9688    1.8975 C   0  0  0  0  0  0  0  0  0  0  0  0
   -0.5717   -4.0306    2.8246 N   0  0  0  0  0  0  0  0  0  0  0  0
   -1.7304   -2.1197    2.0933 N   0  0  0  0  0  0  0  0  0  0  0  0
   -1.9283   -1.0786    1.2630 C   0  0  0  0  0  0  0  0  0  0  0  0
   -3.0062   -0.1686    1.4395 N   0  0  0  0  0  0  0  0  0  0  0  0
   -1.0633   -0.8509    0.1768 C   0  0  0  0  0  0  0  0  0  0  0  0
   -1.3276    0.2697   -0.6884 C   0  0  0  0  0  0  0  0  0  0  0  0
   -1.6636    0.0703   -2.0236 C   0  0  0  0  0  0  0  0  0  0  0  0
   -1.9618    1.1266   -2.8372 C   0  0  0  0  0  0  0  0  0  0  0  0
   -1.9501    2.4217   -2.4037 C   0  0  0  0  0  0  0  0  0  0  0  0
   -1.6145    2.6440   -1.0631 C   0  0  0  0  0  0  0  0  0  0  0  0
   -1.6067    4.3122   -0.5312 Cl  0  0  0  0  0  0  0  0  0  0  0  0
   -1.3196    1.5826   -0.2628 C   0  0  0  0  0  0  0  0  0  0  0  0
  1  2  1  0
  2  3  2  0
  2  4  1  0
  4  5  1  0
  5  6  1  0
  6  7  1  0
  7  8  1  0
  8  9  2  0
  9 10  1  0
 10 11  1  0
 10 12  2  0
 12 13  1  0
 13 14  1  0
 13 15  2  0
 15 16  1  0
 16 17  2  0
 17 18  1  0
 18 19  2  0
 19 20  1  0
 20 21  1  0
 20 22  2  0
 15  8  1  0
 22 16  1  0
M  END
>  <zinc_id>  (724) 
ZINC000013559294

>  <ortholog_name>  (724) 
DRTS_PLAFK

>  <gene_name>  (724) 
DRTS_PLAFK

>  <affinity>  (724) 
8.49

>  <chembldocid>  (724) 
17662

>  <title>  (724) 
None

>  <reference.pubmed_id>  (724) 
14736247

>  <reference.doi>  (724) 
None

>  <reference.chembl_id>  (724) 
CHEMBL1138835

>  <reference.journal>  (724) 
J. Med. Chem.

>  <reference.year>  (724) 
2004

$$$$

     RDKit          3D

 22 23  0  0  0  0  0  0  0  0999 V2000
    5.1055    1.9131    0.6318 C   0  0  0  0  0  0  0  0  0  0  0  0
    3.8507    1.1200    0.5079 C   0  0  0  0  0  0  0  0  0  0  0  0
    3.6128    0.1738    1.2793 O   0  0  0  0  0  0  0  0  0  0  0  0
    2.9721    1.4911   -0.5039 O   0  0  0  0  0  0  0  0  0  0  0  0
    1.7808    0.7663   -0.6494 C   0  0  0  0  0  0  0  0  0  0  0  0
    2.0745   -0.6488   -0.9193 C   0  0  0  0  0  0  0  0  0  0  0  0
    0.9323   -1.5483   -1.0992 C   0  0  0  0  0  0  0  0  0  0  0  0
   -0.0293   -1.7092   -0.0054 C   0  0  0  0  0  0  0  0  0  0  0  0
    0.1369   -2.7680    0.8737 N   0  0  0  0  0  0  0  0  0  0  0  0
   -0.6926   -2.9688    1.8975 C   0  0  0  0  0  0  0  0  0  0  0  0
   -0.5717   -4.0306    2.8246 N   0  0  0  0  0  0  0  0  0  0  0  0
   -1.7304   -2.1197    2.0933 N   0  0  0  0  0  0  0  0  0  0  0  0
   -1.9283   -1.0786    1.2630 C   0  0  0  0  0  0  0  0  0  0  0  0
   -3.0062   -0.1686    1.4395 N   0  0  0  0  0  0  0  0  0  0  0  0
   -1.0633   -0.8509    0.1768 C   0  0  0  0  0  0  0  0  0  0  0  0
   -1.3276    0.2697   -0.6884 C   0  0  0  0  0  0  0  0  0  0  0  0
   -1.6636    0.0703   -2.0236 C   0  0  0  0  0  0  0  0  0  0  0  0
   -1.9618    1.1266   -2.8372 C   0  0  0  0  0  0  0  0  0  0  0  0
   -1.9501    2.4217   -2.4037 C   0  0  0  0  0  0  0  0  0  0  0  0
   -1.6145    2.6440   -1.0631 C   0  0  0  0  0  0  0  0  0  0  0  0
   -1.6067    4.3122   -0.5312 Cl  0  0  0  0  0  0  0  0  0  0  0  0
   -1.3196    1.5826   -0.2628 C   0  0  0  0  0  0  0  0  0  0  0  0
  1  2  1  0
  2  3  2  0
  2  4  1  0
  4  5  1  0
  5  6  1  0
  6  7  1  0
  7  8  1  0
  8  9  2  0
  9 10  1  0
 10 11  1  0
 10 12  2  0
 12 13  1  0
 13 14  1  0
 13 15  2  0
 15 16  1  0
 16 17  2  0
 17 18  1  0
 18 19  2  0
 19 20  1  0
 20 21  1  0
 20 22  2  0
 15  8  1  0
 22 16  1  0
M  END
>  <zinc_id>  (725) 
ZINC000013559294

>  <ortholog_name>  (725) 
DRTS_PLAFK

>  <gene_name>  (725) 
DRTS_PLAFK

>  <affinity>  (725) 
7.50

>  <chembldocid>  (725) 
17662

>  <title>  (725) 
None

>  <reference.pubmed_id>  (725) 
14736247

>  <reference.doi>  (725) 
None

>  <reference.chembl_id>  (725) 
CHEMBL1138835

>  <reference.journal>  (725) 
J. Med. Chem.

>  <reference.year>  (725) 
2004

$$$$

     RDKit          3D

 22 23  0  0  0  0  0  0  0  0999 V2000
    5.1055    1.9131    0.6318 C   0  0  0  0  0  0  0  0  0  0  0  0
    3.8507    1.1200    0.5079 C   0  0  0  0  0  0  0  0  0  0  0  0
    3.6128    0.1738    1.2793 O   0  0  0  0  0  0  0  0  0  0  0  0
    2.9721    1.4911   -0.5039 O   0  0  0  0  0  0  0  0  0  0  0  0
    1.7808    0.7663   -0.6494 C   0  0  0  0  0  0  0  0  0  0  0  0
    2.0745   -0.6488   -0.9193 C   0  0  0  0  0  0  0  0  0  0  0  0
    0.9323   -1.5483   -1.0992 C   0  0  0  0  0  0  0  0  0  0  0  0
   -0.0293   -1.7092   -0.0054 C   0  0  0  0  0  0  0  0  0  0  0  0
    0.1369   -2.7680    0.8737 N   0  0  0  0  0  0  0  0  0  0  0  0
   -0.6926   -2.9688    1.8975 C   0  0  0  0  0  0  0  0  0  0  0  0
   -0.5717   -4.0306    2.8246 N   0  0  0  0  0  0  0  0  0  0  0  0
   -1.7304   -2.1197    2.0933 N   0  0  0  0  0  0  0  0  0  0  0  0
   -1.9283   -1.0786    1.2630 C   0  0  0  0  0  0  0  0  0  0  0  0
   -3.0062   -0.1686    1.4395 N   0  0  0  0  0  0  0  0  0  0  0  0
   -1.0633   -0.8509    0.1768 C   0  0  0  0  0  0  0  0  0  0  0  0
   -1.3276    0.2697   -0.6884 C   0  0  0  0  0  0  0  0  0  0  0  0
   -1.6636    0.0703   -2.0236 C   0  0  0  0  0  0  0  0  0  0  0  0
   -1.9618    1.1266   -2.8372 C   0  0  0  0  0  0  0  0  0  0  0  0
   -1.9501    2.4217   -2.4037 C   0  0  0  0  0  0  0  0  0  0  0  0
   -1.6145    2.6440   -1.0631 C   0  0  0  0  0  0  0  0  0  0  0  0
   -1.6067    4.3122   -0.5312 Cl  0  0  0  0  0  0  0  0  0  0  0  0
   -1.3196    1.5826   -0.2628 C   0  0  0  0  0  0  0  0  0  0  0  0
  1  2  1  0
  2  3  2  0
  2  4  1  0
  4  5  1  0
  5  6  1  0
  6  7  1  0
  7  8  1  0
  8  9  2  0
  9 10  1  0
 10 11  1  0
 10 12  2  0
 12 13  1  0
 13 14  1  0
 13 15  2  0
 15 16  1  0
 16 17  2  0
 17 18  1  0
 18 19  2  0
 19 20  1  0
 20 21  1  0
 20 22  2  0
 15  8  1  0
 22 16  1  0
M  END
>  <zinc_id>  (726) 
ZINC000013559294

>  <ortholog_name>  (726) 
DRTS_PLAFK

>  <gene_name>  (726) 
DRTS_PLAFK

>  <affinity>  (726) 
5.28

>  <chembldocid>  (726) 
17662

>  <title>  (726) 
None

>  <reference.pubmed_id>  (726) 
14736247

>  <reference.doi>  (726) 
None

>  <reference.chembl_id>  (726) 
CHEMBL1138835

>  <reference.journal>  (726) 
J. Med. Chem.

>  <reference.year>  (726) 
2004

$$$$

     RDKit          3D

 26 28  0  0  0  0  0  0  0  0999 V2000
    0.8719   -4.2175    0.3004 N   0  0  0  0  0  0  0  0  0  0  0  0
    1.4475   -2.9042    0.3168 C   0  0  0  0  0  0  0  0  0  0  0  0
    2.7794   -2.7399    0.0993 N   0  0  0  0  0  0  0  0  0  0  0  0
    3.3141   -1.5023    0.1166 C   0  0  0  0  0  0  0  0  0  0  0  0
    4.7049   -1.2765   -0.1073 N   0  0  0  0  0  0  0  0  0  0  0  0
    2.4938   -0.3967    0.3580 C   0  0  0  0  0  0  0  0  0  0  0  0
    3.0507    0.9455    0.3820 C   0  0  0  0  0  0  0  0  0  0  0  0
    3.7172    1.3843    1.5315 C   0  0  0  0  0  0  0  0  0  0  0  0
    4.2686    2.6377    1.6374 C   0  0  0  0  0  0  0  0  0  0  0  0
    4.1766    3.5221    0.5827 C   0  0  0  0  0  0  0  0  0  0  0  0
    3.5218    3.0958   -0.5503 C   0  0  0  0  0  0  0  0  0  0  0  0
    2.9659    1.8369   -0.6622 C   0  0  0  0  0  0  0  0  0  0  0  0
    1.1478   -0.5618    0.5777 C   0  0  0  0  0  0  0  0  0  0  0  0
    0.2412    0.5871    0.8354 C   0  0  0  0  0  0  0  0  0  0  0  0
   -0.0208    1.2906   -0.5029 C   0  0  0  0  0  0  0  0  0  0  0  0
   -0.6402    0.2517   -1.4173 C   0  0  0  0  0  0  0  0  0  0  0  0
   -1.8159   -0.2092   -0.8047 O   0  0  0  0  0  0  0  0  0  0  0  0
   -2.8614    0.6378   -0.4951 C   0  0  0  0  0  0  0  0  0  0  0  0
   -2.7418    1.8551   -0.7786 O   0  0  0  0  0  0  0  0  0  0  0  0
   -4.0696    0.1125    0.1479 C   0  0  0  0  0  0  0  0  0  0  0  0
   -4.1627   -1.2345    0.4345 C   0  0  0  0  0  0  0  0  0  0  0  0
   -5.3130   -1.7221    1.0495 C   0  0  0  0  0  0  0  0  0  0  0  0
   -6.3680   -0.9058    1.3848 C   0  0  0  0  0  0  0  0  0  0  0  0
   -6.2592    0.4344    1.0922 C   0  0  0  0  0  0  0  0  0  0  0  0
   -5.1159    0.9171    0.4811 C   0  0  0  0  0  0  0  0  0  0  0  0
    0.6670   -1.8379    0.5478 N   0  0  0  0  0  0  0  0  0  0  0  0
  1  2  1  0
  2  3  2  0
  3  4  1  0
  4  5  1  0
  4  6  2  0
  6  7  1  0
  7  8  2  0
  8  9  1  0
  9 10  2  0
 10 11  1  0
 11 12  2  0
  6 13  1  0
 13 14  1  0
 14 15  1  0
 15 16  1  0
 16 17  1  0
 17 18  1  0
 18 19  2  0
 18 20  1  0
 20 21  2  0
 21 22  1  0
 22 23  2  0
 23 24  1  0
 24 25  2  0
 13 26  2  0
 26  2  1  0
 12  7  1  0
 25 20  1  0
M  END
>  <zinc_id>  (727) 
ZINC000013559295

>  <ortholog_name>  (727) 
DRTS_PLAFK

>  <gene_name>  (727) 
DRTS_PLAFK

>  <affinity>  (727) 
9.15

>  <chembldocid>  (727) 
17662

>  <title>  (727) 
None

>  <reference.pubmed_id>  (727) 
14736247

>  <reference.doi>  (727) 
None

>  <reference.chembl_id>  (727) 
CHEMBL1138835

>  <reference.journal>  (727) 
J. Med. Chem.

>  <reference.year>  (727) 
2004

$$$$

     RDKit          3D

 26 28  0  0  0  0  0  0  0  0999 V2000
    0.8719   -4.2175    0.3004 N   0  0  0  0  0  0  0  0  0  0  0  0
    1.4475   -2.9042    0.3168 C   0  0  0  0  0  0  0  0  0  0  0  0
    2.7794   -2.7399    0.0993 N   0  0  0  0  0  0  0  0  0  0  0  0
    3.3141   -1.5023    0.1166 C   0  0  0  0  0  0  0  0  0  0  0  0
    4.7049   -1.2765   -0.1073 N   0  0  0  0  0  0  0  0  0  0  0  0
    2.4938   -0.3967    0.3580 C   0  0  0  0  0  0  0  0  0  0  0  0
    3.0507    0.9455    0.3820 C   0  0  0  0  0  0  0  0  0  0  0  0
    3.7172    1.3843    1.5315 C   0  0  0  0  0  0  0  0  0  0  0  0
    4.2686    2.6377    1.6374 C   0  0  0  0  0  0  0  0  0  0  0  0
    4.1766    3.5221    0.5827 C   0  0  0  0  0  0  0  0  0  0  0  0
    3.5218    3.0958   -0.5503 C   0  0  0  0  0  0  0  0  0  0  0  0
    2.9659    1.8369   -0.6622 C   0  0  0  0  0  0  0  0  0  0  0  0
    1.1478   -0.5618    0.5777 C   0  0  0  0  0  0  0  0  0  0  0  0
    0.2412    0.5871    0.8354 C   0  0  0  0  0  0  0  0  0  0  0  0
   -0.0208    1.2906   -0.5029 C   0  0  0  0  0  0  0  0  0  0  0  0
   -0.6402    0.2517   -1.4173 C   0  0  0  0  0  0  0  0  0  0  0  0
   -1.8159   -0.2092   -0.8047 O   0  0  0  0  0  0  0  0  0  0  0  0
   -2.8614    0.6378   -0.4951 C   0  0  0  0  0  0  0  0  0  0  0  0
   -2.7418    1.8551   -0.7786 O   0  0  0  0  0  0  0  0  0  0  0  0
   -4.0696    0.1125    0.1479 C   0  0  0  0  0  0  0  0  0  0  0  0
   -4.1627   -1.2345    0.4345 C   0  0  0  0  0  0  0  0  0  0  0  0
   -5.3130   -1.7221    1.0495 C   0  0  0  0  0  0  0  0  0  0  0  0
   -6.3680   -0.9058    1.3848 C   0  0  0  0  0  0  0  0  0  0  0  0
   -6.2592    0.4344    1.0922 C   0  0  0  0  0  0  0  0  0  0  0  0
   -5.1159    0.9171    0.4811 C   0  0  0  0  0  0  0  0  0  0  0  0
    0.6670   -1.8379    0.5478 N   0  0  0  0  0  0  0  0  0  0  0  0
  1  2  1  0
  2  3  2  0
  3  4  1  0
  4  5  1  0
  4  6  2  0
  6  7  1  0
  7  8  2  0
  8  9  1  0
  9 10  2  0
 10 11  1  0
 11 12  2  0
  6 13  1  0
 13 14  1  0
 14 15  1  0
 15 16  1  0
 16 17  1  0
 17 18  1  0
 18 19  2  0
 18 20  1  0
 20 21  2  0
 21 22  1  0
 22 23  2  0
 23 24  1  0
 24 25  2  0
 13 26  2  0
 26  2  1  0
 12  7  1  0
 25 20  1  0
M  END
>  <zinc_id>  (728) 
ZINC000013559295

>  <ortholog_name>  (728) 
DRTS_PLAFK

>  <gene_name>  (728) 
DRTS_PLAFK

>  <affinity>  (728) 
7.85

>  <chembldocid>  (728) 
17662

>  <title>  (728) 
None

>  <reference.pubmed_id>  (728) 
14736247

>  <reference.doi>  (728) 
None

>  <reference.chembl_id>  (728) 
CHEMBL1138835

>  <reference.journal>  (728) 
J. Med. Chem.

>  <reference.year>  (728) 
2004

$$$$

     RDKit          3D

 26 28  0  0  0  0  0  0  0  0999 V2000
    0.8719   -4.2175    0.3004 N   0  0  0  0  0  0  0  0  0  0  0  0
    1.4475   -2.9042    0.3168 C   0  0  0  0  0  0  0  0  0  0  0  0
    2.7794   -2.7399    0.0993 N   0  0  0  0  0  0  0  0  0  0  0  0
    3.3141   -1.5023    0.1166 C   0  0  0  0  0  0  0  0  0  0  0  0
    4.7049   -1.2765   -0.1073 N   0  0  0  0  0  0  0  0  0  0  0  0
    2.4938   -0.3967    0.3580 C   0  0  0  0  0  0  0  0  0  0  0  0
    3.0507    0.9455    0.3820 C   0  0  0  0  0  0  0  0  0  0  0  0
    3.7172    1.3843    1.5315 C   0  0  0  0  0  0  0  0  0  0  0  0
    4.2686    2.6377    1.6374 C   0  0  0  0  0  0  0  0  0  0  0  0
    4.1766    3.5221    0.5827 C   0  0  0  0  0  0  0  0  0  0  0  0
    3.5218    3.0958   -0.5503 C   0  0  0  0  0  0  0  0  0  0  0  0
    2.9659    1.8369   -0.6622 C   0  0  0  0  0  0  0  0  0  0  0  0
    1.1478   -0.5618    0.5777 C   0  0  0  0  0  0  0  0  0  0  0  0
    0.2412    0.5871    0.8354 C   0  0  0  0  0  0  0  0  0  0  0  0
   -0.0208    1.2906   -0.5029 C   0  0  0  0  0  0  0  0  0  0  0  0
   -0.6402    0.2517   -1.4173 C   0  0  0  0  0  0  0  0  0  0  0  0
   -1.8159   -0.2092   -0.8047 O   0  0  0  0  0  0  0  0  0  0  0  0
   -2.8614    0.6378   -0.4951 C   0  0  0  0  0  0  0  0  0  0  0  0
   -2.7418    1.8551   -0.7786 O   0  0  0  0  0  0  0  0  0  0  0  0
   -4.0696    0.1125    0.1479 C   0  0  0  0  0  0  0  0  0  0  0  0
   -4.1627   -1.2345    0.4345 C   0  0  0  0  0  0  0  0  0  0  0  0
   -5.3130   -1.7221    1.0495 C   0  0  0  0  0  0  0  0  0  0  0  0
   -6.3680   -0.9058    1.3848 C   0  0  0  0  0  0  0  0  0  0  0  0
   -6.2592    0.4344    1.0922 C   0  0  0  0  0  0  0  0  0  0  0  0
   -5.1159    0.9171    0.4811 C   0  0  0  0  0  0  0  0  0  0  0  0
    0.6670   -1.8379    0.5478 N   0  0  0  0  0  0  0  0  0  0  0  0
  1  2  1  0
  2  3  2  0
  3  4  1  0
  4  5  1  0
  4  6  2  0
  6  7  1  0
  7  8  2  0
  8  9  1  0
  9 10  2  0
 10 11  1  0
 11 12  2  0
  6 13  1  0
 13 14  1  0
 14 15  1  0
 15 16  1  0
 16 17  1  0
 17 18  1  0
 18 19  2  0
 18 20  1  0
 20 21  2  0
 21 22  1  0
 22 23  2  0
 23 24  1  0
 24 25  2  0
 13 26  2  0
 26  2  1  0
 12  7  1  0
 25 20  1  0
M  END
>  <zinc_id>  (729) 
ZINC000013559295

>  <ortholog_name>  (729) 
DRTS_PLAFK

>  <gene_name>  (729) 
DRTS_PLAFK

>  <affinity>  (729) 
8.57

>  <chembldocid>  (729) 
17662

>  <title>  (729) 
None

>  <reference.pubmed_id>  (729) 
14736247

>  <reference.doi>  (729) 
None

>  <reference.chembl_id>  (729) 
CHEMBL1138835

>  <reference.journal>  (729) 
J. Med. Chem.

>  <reference.year>  (729) 
2004

$$$$

     RDKit          3D

 26 28  0  0  0  0  0  0  0  0999 V2000
    0.8719   -4.2175    0.3004 N   0  0  0  0  0  0  0  0  0  0  0  0
    1.4475   -2.9042    0.3168 C   0  0  0  0  0  0  0  0  0  0  0  0
    2.7794   -2.7399    0.0993 N   0  0  0  0  0  0  0  0  0  0  0  0
    3.3141   -1.5023    0.1166 C   0  0  0  0  0  0  0  0  0  0  0  0
    4.7049   -1.2765   -0.1073 N   0  0  0  0  0  0  0  0  0  0  0  0
    2.4938   -0.3967    0.3580 C   0  0  0  0  0  0  0  0  0  0  0  0
    3.0507    0.9455    0.3820 C   0  0  0  0  0  0  0  0  0  0  0  0
    3.7172    1.3843    1.5315 C   0  0  0  0  0  0  0  0  0  0  0  0
    4.2686    2.6377    1.6374 C   0  0  0  0  0  0  0  0  0  0  0  0
    4.1766    3.5221    0.5827 C   0  0  0  0  0  0  0  0  0  0  0  0
    3.5218    3.0958   -0.5503 C   0  0  0  0  0  0  0  0  0  0  0  0
    2.9659    1.8369   -0.6622 C   0  0  0  0  0  0  0  0  0  0  0  0
    1.1478   -0.5618    0.5777 C   0  0  0  0  0  0  0  0  0  0  0  0
    0.2412    0.5871    0.8354 C   0  0  0  0  0  0  0  0  0  0  0  0
   -0.0208    1.2906   -0.5029 C   0  0  0  0  0  0  0  0  0  0  0  0
   -0.6402    0.2517   -1.4173 C   0  0  0  0  0  0  0  0  0  0  0  0
   -1.8159   -0.2092   -0.8047 O   0  0  0  0  0  0  0  0  0  0  0  0
   -2.8614    0.6378   -0.4951 C   0  0  0  0  0  0  0  0  0  0  0  0
   -2.7418    1.8551   -0.7786 O   0  0  0  0  0  0  0  0  0  0  0  0
   -4.0696    0.1125    0.1479 C   0  0  0  0  0  0  0  0  0  0  0  0
   -4.1627   -1.2345    0.4345 C   0  0  0  0  0  0  0  0  0  0  0  0
   -5.3130   -1.7221    1.0495 C   0  0  0  0  0  0  0  0  0  0  0  0
   -6.3680   -0.9058    1.3848 C   0  0  0  0  0  0  0  0  0  0  0  0
   -6.2592    0.4344    1.0922 C   0  0  0  0  0  0  0  0  0  0  0  0
   -5.1159    0.9171    0.4811 C   0  0  0  0  0  0  0  0  0  0  0  0
    0.6670   -1.8379    0.5478 N   0  0  0  0  0  0  0  0  0  0  0  0
  1  2  1  0
  2  3  2  0
  3  4  1  0
  4  5  1  0
  4  6  2  0
  6  7  1  0
  7  8  2  0
  8  9  1  0
  9 10  2  0
 10 11  1  0
 11 12  2  0
  6 13  1  0
 13 14  1  0
 14 15  1  0
 15 16  1  0
 16 17  1  0
 17 18  1  0
 18 19  2  0
 18 20  1  0
 20 21  2  0
 21 22  1  0
 22 23  2  0
 23 24  1  0
 24 25  2  0
 13 26  2  0
 26  2  1  0
 12  7  1  0
 25 20  1  0
M  END
>  <zinc_id>  (730) 
ZINC000013559295

>  <ortholog_name>  (730) 
DRTS_PLAFK

>  <gene_name>  (730) 
DRTS_PLAFK

>  <affinity>  (730) 
8.47

>  <chembldocid>  (730) 
17662

>  <title>  (730) 
None

>  <reference.pubmed_id>  (730) 
14736247

>  <reference.doi>  (730) 
None

>  <reference.chembl_id>  (730) 
CHEMBL1138835

>  <reference.journal>  (730) 
J. Med. Chem.

>  <reference.year>  (730) 
2004

$$$$

     RDKit          3D

 27 29  0  0  0  0  0  0  0  0999 V2000
   -0.9588   -4.5290    1.4409 N   0  0  0  0  0  0  0  0  0  0  0  0
   -1.5168   -3.2564    1.1036 C   0  0  0  0  0  0  0  0  0  0  0  0
   -2.8344   -3.0267    1.1221 N   0  0  0  0  0  0  0  0  0  0  0  0
   -3.3019   -1.8115    0.7927 C   0  0  0  0  0  0  0  0  0  0  0  0
   -4.7226   -1.5819    0.8183 N   0  0  0  0  0  0  0  0  0  0  0  0
   -2.4644   -0.7844    0.4349 C   0  0  0  0  0  0  0  0  0  0  0  0
   -2.9592    0.5436    0.1090 C   0  0  0  0  0  0  0  0  0  0  0  0
   -3.7339    0.7768   -1.0160 C   0  0  0  0  0  0  0  0  0  0  0  0
   -4.1984    2.0398   -1.3435 C   0  0  0  0  0  0  0  0  0  0  0  0
   -3.8497    3.0814   -0.4837 C   0  0  0  0  0  0  0  0  0  0  0  0
   -3.0805    2.8686    0.6380 C   0  0  0  0  0  0  0  0  0  0  0  0
   -2.5984    4.1419    1.7469 Cl  0  0  0  0  0  0  0  0  0  0  0  0
   -2.6308    1.5783    0.9352 C   0  0  0  0  0  0  0  0  0  0  0  0
   -1.0963   -1.0469    0.4232 C   0  0  0  0  0  0  0  0  0  0  0  0
   -0.2069    0.0542    0.0485 C   0  0  0  0  0  0  0  0  0  0  0  0
   -0.1259    0.2356   -1.4510 C   0  0  0  0  0  0  0  0  0  0  0  0
    0.8124    1.4309   -1.7135 C   0  0  0  0  0  0  0  0  0  0  0  0
    2.0563    1.2146   -1.1414 O   0  0  0  0  0  0  0  0  0  0  0  0
    2.9678    0.2219   -1.3993 C   0  0  0  0  0  0  0  0  0  0  0  0
    2.6776   -0.6215   -2.2785 O   0  0  0  0  0  0  0  0  0  0  0  0
    4.2207    0.1830   -0.6492 C   0  0  0  0  0  0  0  0  0  0  0  0
    5.1385   -0.7842   -0.9132 C   0  0  0  0  0  0  0  0  0  0  0  0
    6.3289   -0.8640   -0.2051 C   0  0  0  0  0  0  0  0  0  0  0  0
    6.5879    0.0667    0.7975 C   0  0  0  0  0  0  0  0  0  0  0  0
    5.6759    1.0443    1.0755 C   0  0  0  0  0  0  0  0  0  0  0  0
    4.4967    1.0979    0.3503 C   0  0  0  0  0  0  0  0  0  0  0  0
   -0.6838   -2.2730    0.7582 N   0  0  0  0  0  0  0  0  0  0  0  0
  1  2  1  0
  2  3  2  0
  3  4  1  0
  4  5  1  0
  4  6  2  0
  6  7  1  0
  7  8  2  0
  8  9  1  0
  9 10  2  0
 10 11  1  0
 11 12  1  0
 11 13  2  0
  6 14  1  0
 14 15  1  0
 15 16  1  0
 16 17  1  0
 17 18  1  0
 18 19  1  0
 19 20  2  0
 19 21  1  0
 21 22  2  0
 22 23  1  0
 23 24  2  0
 24 25  1  0
 25 26  2  0
 14 27  2  0
 27  2  1  0
 13  7  1  0
 26 21  1  0
M  END
>  <zinc_id>  (731) 
ZINC000013559296

>  <ortholog_name>  (731) 
DRTS_PLAFK

>  <gene_name>  (731) 
DRTS_PLAFK

>  <affinity>  (731) 
9.10

>  <chembldocid>  (731) 
17662

>  <title>  (731) 
None

>  <reference.pubmed_id>  (731) 
14736247

>  <reference.doi>  (731) 
None

>  <reference.chembl_id>  (731) 
CHEMBL1138835

>  <reference.journal>  (731) 
J. Med. Chem.

>  <reference.year>  (731) 
2004

$$$$

     RDKit          3D

 27 29  0  0  0  0  0  0  0  0999 V2000
   -0.9588   -4.5290    1.4409 N   0  0  0  0  0  0  0  0  0  0  0  0
   -1.5168   -3.2564    1.1036 C   0  0  0  0  0  0  0  0  0  0  0  0
   -2.8344   -3.0267    1.1221 N   0  0  0  0  0  0  0  0  0  0  0  0
   -3.3019   -1.8115    0.7927 C   0  0  0  0  0  0  0  0  0  0  0  0
   -4.7226   -1.5819    0.8183 N   0  0  0  0  0  0  0  0  0  0  0  0
   -2.4644   -0.7844    0.4349 C   0  0  0  0  0  0  0  0  0  0  0  0
   -2.9592    0.5436    0.1090 C   0  0  0  0  0  0  0  0  0  0  0  0
   -3.7339    0.7768   -1.0160 C   0  0  0  0  0  0  0  0  0  0  0  0
   -4.1984    2.0398   -1.3435 C   0  0  0  0  0  0  0  0  0  0  0  0
   -3.8497    3.0814   -0.4837 C   0  0  0  0  0  0  0  0  0  0  0  0
   -3.0805    2.8686    0.6380 C   0  0  0  0  0  0  0  0  0  0  0  0
   -2.5984    4.1419    1.7469 Cl  0  0  0  0  0  0  0  0  0  0  0  0
   -2.6308    1.5783    0.9352 C   0  0  0  0  0  0  0  0  0  0  0  0
   -1.0963   -1.0469    0.4232 C   0  0  0  0  0  0  0  0  0  0  0  0
   -0.2069    0.0542    0.0485 C   0  0  0  0  0  0  0  0  0  0  0  0
   -0.1259    0.2356   -1.4510 C   0  0  0  0  0  0  0  0  0  0  0  0
    0.8124    1.4309   -1.7135 C   0  0  0  0  0  0  0  0  0  0  0  0
    2.0563    1.2146   -1.1414 O   0  0  0  0  0  0  0  0  0  0  0  0
    2.9678    0.2219   -1.3993 C   0  0  0  0  0  0  0  0  0  0  0  0
    2.6776   -0.6215   -2.2785 O   0  0  0  0  0  0  0  0  0  0  0  0
    4.2207    0.1830   -0.6492 C   0  0  0  0  0  0  0  0  0  0  0  0
    5.1385   -0.7842   -0.9132 C   0  0  0  0  0  0  0  0  0  0  0  0
    6.3289   -0.8640   -0.2051 C   0  0  0  0  0  0  0  0  0  0  0  0
    6.5879    0.0667    0.7975 C   0  0  0  0  0  0  0  0  0  0  0  0
    5.6759    1.0443    1.0755 C   0  0  0  0  0  0  0  0  0  0  0  0
    4.4967    1.0979    0.3503 C   0  0  0  0  0  0  0  0  0  0  0  0
   -0.6838   -2.2730    0.7582 N   0  0  0  0  0  0  0  0  0  0  0  0
  1  2  1  0
  2  3  2  0
  3  4  1  0
  4  5  1  0
  4  6  2  0
  6  7  1  0
  7  8  2  0
  8  9  1  0
  9 10  2  0
 10 11  1  0
 11 12  1  0
 11 13  2  0
  6 14  1  0
 14 15  1  0
 15 16  1  0
 16 17  1  0
 17 18  1  0
 18 19  1  0
 19 20  2  0
 19 21  1  0
 21 22  2  0
 22 23  1  0
 23 24  2  0
 24 25  1  0
 25 26  2  0
 14 27  2  0
 27  2  1  0
 13  7  1  0
 26 21  1  0
M  END
>  <zinc_id>  (732) 
ZINC000013559296

>  <ortholog_name>  (732) 
DRTS_PLAFK

>  <gene_name>  (732) 
DRTS_PLAFK

>  <affinity>  (732) 
8.82

>  <chembldocid>  (732) 
17662

>  <title>  (732) 
None

>  <reference.pubmed_id>  (732) 
14736247

>  <reference.doi>  (732) 
None

>  <reference.chembl_id>  (732) 
CHEMBL1138835

>  <reference.journal>  (732) 
J. Med. Chem.

>  <reference.year>  (732) 
2004

$$$$

     RDKit          3D

 27 29  0  0  0  0  0  0  0  0999 V2000
   -0.9588   -4.5290    1.4409 N   0  0  0  0  0  0  0  0  0  0  0  0
   -1.5168   -3.2564    1.1036 C   0  0  0  0  0  0  0  0  0  0  0  0
   -2.8344   -3.0267    1.1221 N   0  0  0  0  0  0  0  0  0  0  0  0
   -3.3019   -1.8115    0.7927 C   0  0  0  0  0  0  0  0  0  0  0  0
   -4.7226   -1.5819    0.8183 N   0  0  0  0  0  0  0  0  0  0  0  0
   -2.4644   -0.7844    0.4349 C   0  0  0  0  0  0  0  0  0  0  0  0
   -2.9592    0.5436    0.1090 C   0  0  0  0  0  0  0  0  0  0  0  0
   -3.7339    0.7768   -1.0160 C   0  0  0  0  0  0  0  0  0  0  0  0
   -4.1984    2.0398   -1.3435 C   0  0  0  0  0  0  0  0  0  0  0  0
   -3.8497    3.0814   -0.4837 C   0  0  0  0  0  0  0  0  0  0  0  0
   -3.0805    2.8686    0.6380 C   0  0  0  0  0  0  0  0  0  0  0  0
   -2.5984    4.1419    1.7469 Cl  0  0  0  0  0  0  0  0  0  0  0  0
   -2.6308    1.5783    0.9352 C   0  0  0  0  0  0  0  0  0  0  0  0
   -1.0963   -1.0469    0.4232 C   0  0  0  0  0  0  0  0  0  0  0  0
   -0.2069    0.0542    0.0485 C   0  0  0  0  0  0  0  0  0  0  0  0
   -0.1259    0.2356   -1.4510 C   0  0  0  0  0  0  0  0  0  0  0  0
    0.8124    1.4309   -1.7135 C   0  0  0  0  0  0  0  0  0  0  0  0
    2.0563    1.2146   -1.1414 O   0  0  0  0  0  0  0  0  0  0  0  0
    2.9678    0.2219   -1.3993 C   0  0  0  0  0  0  0  0  0  0  0  0
    2.6776   -0.6215   -2.2785 O   0  0  0  0  0  0  0  0  0  0  0  0
    4.2207    0.1830   -0.6492 C   0  0  0  0  0  0  0  0  0  0  0  0
    5.1385   -0.7842   -0.9132 C   0  0  0  0  0  0  0  0  0  0  0  0
    6.3289   -0.8640   -0.2051 C   0  0  0  0  0  0  0  0  0  0  0  0
    6.5879    0.0667    0.7975 C   0  0  0  0  0  0  0  0  0  0  0  0
    5.6759    1.0443    1.0755 C   0  0  0  0  0  0  0  0  0  0  0  0
    4.4967    1.0979    0.3503 C   0  0  0  0  0  0  0  0  0  0  0  0
   -0.6838   -2.2730    0.7582 N   0  0  0  0  0  0  0  0  0  0  0  0
  1  2  1  0
  2  3  2  0
  3  4  1  0
  4  5  1  0
  4  6  2  0
  6  7  1  0
  7  8  2  0
  8  9  1  0
  9 10  2  0
 10 11  1  0
 11 12  1  0
 11 13  2  0
  6 14  1  0
 14 15  1  0
 15 16  1  0
 16 17  1  0
 17 18  1  0
 18 19  1  0
 19 20  2  0
 19 21  1  0
 21 22  2  0
 22 23  1  0
 23 24  2  0
 24 25  1  0
 25 26  2  0
 14 27  2  0
 27  2  1  0
 13  7  1  0
 26 21  1  0
M  END
>  <zinc_id>  (733) 
ZINC000013559296

>  <ortholog_name>  (733) 
DRTS_PLAFK

>  <gene_name>  (733) 
DRTS_PLAFK

>  <affinity>  (733) 
5.72

>  <chembldocid>  (733) 
17662

>  <title>  (733) 
None

>  <reference.pubmed_id>  (733) 
14736247

>  <reference.doi>  (733) 
None

>  <reference.chembl_id>  (733) 
CHEMBL1138835

>  <reference.journal>  (733) 
J. Med. Chem.

>  <reference.year>  (733) 
2004

$$$$

     RDKit          3D

 27 29  0  0  0  0  0  0  0  0999 V2000
   -0.9588   -4.5290    1.4409 N   0  0  0  0  0  0  0  0  0  0  0  0
   -1.5168   -3.2564    1.1036 C   0  0  0  0  0  0  0  0  0  0  0  0
   -2.8344   -3.0267    1.1221 N   0  0  0  0  0  0  0  0  0  0  0  0
   -3.3019   -1.8115    0.7927 C   0  0  0  0  0  0  0  0  0  0  0  0
   -4.7226   -1.5819    0.8183 N   0  0  0  0  0  0  0  0  0  0  0  0
   -2.4644   -0.7844    0.4349 C   0  0  0  0  0  0  0  0  0  0  0  0
   -2.9592    0.5436    0.1090 C   0  0  0  0  0  0  0  0  0  0  0  0
   -3.7339    0.7768   -1.0160 C   0  0  0  0  0  0  0  0  0  0  0  0
   -4.1984    2.0398   -1.3435 C   0  0  0  0  0  0  0  0  0  0  0  0
   -3.8497    3.0814   -0.4837 C   0  0  0  0  0  0  0  0  0  0  0  0
   -3.0805    2.8686    0.6380 C   0  0  0  0  0  0  0  0  0  0  0  0
   -2.5984    4.1419    1.7469 Cl  0  0  0  0  0  0  0  0  0  0  0  0
   -2.6308    1.5783    0.9352 C   0  0  0  0  0  0  0  0  0  0  0  0
   -1.0963   -1.0469    0.4232 C   0  0  0  0  0  0  0  0  0  0  0  0
   -0.2069    0.0542    0.0485 C   0  0  0  0  0  0  0  0  0  0  0  0
   -0.1259    0.2356   -1.4510 C   0  0  0  0  0  0  0  0  0  0  0  0
    0.8124    1.4309   -1.7135 C   0  0  0  0  0  0  0  0  0  0  0  0
    2.0563    1.2146   -1.1414 O   0  0  0  0  0  0  0  0  0  0  0  0
    2.9678    0.2219   -1.3993 C   0  0  0  0  0  0  0  0  0  0  0  0
    2.6776   -0.6215   -2.2785 O   0  0  0  0  0  0  0  0  0  0  0  0
    4.2207    0.1830   -0.6492 C   0  0  0  0  0  0  0  0  0  0  0  0
    5.1385   -0.7842   -0.9132 C   0  0  0  0  0  0  0  0  0  0  0  0
    6.3289   -0.8640   -0.2051 C   0  0  0  0  0  0  0  0  0  0  0  0
    6.5879    0.0667    0.7975 C   0  0  0  0  0  0  0  0  0  0  0  0
    5.6759    1.0443    1.0755 C   0  0  0  0  0  0  0  0  0  0  0  0
    4.4967    1.0979    0.3503 C   0  0  0  0  0  0  0  0  0  0  0  0
   -0.6838   -2.2730    0.7582 N   0  0  0  0  0  0  0  0  0  0  0  0
  1  2  1  0
  2  3  2  0
  3  4  1  0
  4  5  1  0
  4  6  2  0
  6  7  1  0
  7  8  2  0
  8  9  1  0
  9 10  2  0
 10 11  1  0
 11 12  1  0
 11 13  2  0
  6 14  1  0
 14 15  1  0
 15 16  1  0
 16 17  1  0
 17 18  1  0
 18 19  1  0
 19 20  2  0
 19 21  1  0
 21 22  2  0
 22 23  1  0
 23 24  2  0
 24 25  1  0
 25 26  2  0
 14 27  2  0
 27  2  1  0
 13  7  1  0
 26 21  1  0
M  END
>  <zinc_id>  (734) 
ZINC000013559296

>  <ortholog_name>  (734) 
DRTS_PLAFK

>  <gene_name>  (734) 
DRTS_PLAFK

>  <affinity>  (734) 
5.70

>  <chembldocid>  (734) 
17662

>  <title>  (734) 
None

>  <reference.pubmed_id>  (734) 
14736247

>  <reference.doi>  (734) 
None

>  <reference.chembl_id>  (734) 
CHEMBL1138835

>  <reference.journal>  (734) 
J. Med. Chem.

>  <reference.year>  (734) 
2004

$$$$

     RDKit          3D

 27 29  0  0  0  0  0  0  0  0999 V2000
   -0.9588   -4.5290    1.4409 N   0  0  0  0  0  0  0  0  0  0  0  0
   -1.5168   -3.2564    1.1036 C   0  0  0  0  0  0  0  0  0  0  0  0
   -2.8344   -3.0267    1.1221 N   0  0  0  0  0  0  0  0  0  0  0  0
   -3.3019   -1.8115    0.7927 C   0  0  0  0  0  0  0  0  0  0  0  0
   -4.7226   -1.5819    0.8183 N   0  0  0  0  0  0  0  0  0  0  0  0
   -2.4644   -0.7844    0.4349 C   0  0  0  0  0  0  0  0  0  0  0  0
   -2.9592    0.5436    0.1090 C   0  0  0  0  0  0  0  0  0  0  0  0
   -3.7339    0.7768   -1.0160 C   0  0  0  0  0  0  0  0  0  0  0  0
   -4.1984    2.0398   -1.3435 C   0  0  0  0  0  0  0  0  0  0  0  0
   -3.8497    3.0814   -0.4837 C   0  0  0  0  0  0  0  0  0  0  0  0
   -3.0805    2.8686    0.6380 C   0  0  0  0  0  0  0  0  0  0  0  0
   -2.5984    4.1419    1.7469 Cl  0  0  0  0  0  0  0  0  0  0  0  0
   -2.6308    1.5783    0.9352 C   0  0  0  0  0  0  0  0  0  0  0  0
   -1.0963   -1.0469    0.4232 C   0  0  0  0  0  0  0  0  0  0  0  0
   -0.2069    0.0542    0.0485 C   0  0  0  0  0  0  0  0  0  0  0  0
   -0.1259    0.2356   -1.4510 C   0  0  0  0  0  0  0  0  0  0  0  0
    0.8124    1.4309   -1.7135 C   0  0  0  0  0  0  0  0  0  0  0  0
    2.0563    1.2146   -1.1414 O   0  0  0  0  0  0  0  0  0  0  0  0
    2.9678    0.2219   -1.3993 C   0  0  0  0  0  0  0  0  0  0  0  0
    2.6776   -0.6215   -2.2785 O   0  0  0  0  0  0  0  0  0  0  0  0
    4.2207    0.1830   -0.6492 C   0  0  0  0  0  0  0  0  0  0  0  0
    5.1385   -0.7842   -0.9132 C   0  0  0  0  0  0  0  0  0  0  0  0
    6.3289   -0.8640   -0.2051 C   0  0  0  0  0  0  0  0  0  0  0  0
    6.5879    0.0667    0.7975 C   0  0  0  0  0  0  0  0  0  0  0  0
    5.6759    1.0443    1.0755 C   0  0  0  0  0  0  0  0  0  0  0  0
    4.4967    1.0979    0.3503 C   0  0  0  0  0  0  0  0  0  0  0  0
   -0.6838   -2.2730    0.7582 N   0  0  0  0  0  0  0  0  0  0  0  0
  1  2  1  0
  2  3  2  0
  3  4  1  0
  4  5  1  0
  4  6  2  0
  6  7  1  0
  7  8  2  0
  8  9  1  0
  9 10  2  0
 10 11  1  0
 11 12  1  0
 11 13  2  0
  6 14  1  0
 14 15  1  0
 15 16  1  0
 16 17  1  0
 17 18  1  0
 18 19  1  0
 19 20  2  0
 19 21  1  0
 21 22  2  0
 22 23  1  0
 23 24  2  0
 24 25  1  0
 25 26  2  0
 14 27  2  0
 27  2  1  0
 13  7  1  0
 26 21  1  0
M  END
>  <zinc_id>  (735) 
ZINC000013559296

>  <ortholog_name>  (735) 
DRTS_PLAFK

>  <gene_name>  (735) 
DRTS_PLAFK

>  <affinity>  (735) 
5.68

>  <chembldocid>  (735) 
17662

>  <title>  (735) 
None

>  <reference.pubmed_id>  (735) 
14736247

>  <reference.doi>  (735) 
None

>  <reference.chembl_id>  (735) 
CHEMBL1138835

>  <reference.journal>  (735) 
J. Med. Chem.

>  <reference.year>  (735) 
2004

$$$$

     RDKit          3D

 27 29  0  0  0  0  0  0  0  0999 V2000
   -0.9588   -4.5290    1.4409 N   0  0  0  0  0  0  0  0  0  0  0  0
   -1.5168   -3.2564    1.1036 C   0  0  0  0  0  0  0  0  0  0  0  0
   -2.8344   -3.0267    1.1221 N   0  0  0  0  0  0  0  0  0  0  0  0
   -3.3019   -1.8115    0.7927 C   0  0  0  0  0  0  0  0  0  0  0  0
   -4.7226   -1.5819    0.8183 N   0  0  0  0  0  0  0  0  0  0  0  0
   -2.4644   -0.7844    0.4349 C   0  0  0  0  0  0  0  0  0  0  0  0
   -2.9592    0.5436    0.1090 C   0  0  0  0  0  0  0  0  0  0  0  0
   -3.7339    0.7768   -1.0160 C   0  0  0  0  0  0  0  0  0  0  0  0
   -4.1984    2.0398   -1.3435 C   0  0  0  0  0  0  0  0  0  0  0  0
   -3.8497    3.0814   -0.4837 C   0  0  0  0  0  0  0  0  0  0  0  0
   -3.0805    2.8686    0.6380 C   0  0  0  0  0  0  0  0  0  0  0  0
   -2.5984    4.1419    1.7469 Cl  0  0  0  0  0  0  0  0  0  0  0  0
   -2.6308    1.5783    0.9352 C   0  0  0  0  0  0  0  0  0  0  0  0
   -1.0963   -1.0469    0.4232 C   0  0  0  0  0  0  0  0  0  0  0  0
   -0.2069    0.0542    0.0485 C   0  0  0  0  0  0  0  0  0  0  0  0
   -0.1259    0.2356   -1.4510 C   0  0  0  0  0  0  0  0  0  0  0  0
    0.8124    1.4309   -1.7135 C   0  0  0  0  0  0  0  0  0  0  0  0
    2.0563    1.2146   -1.1414 O   0  0  0  0  0  0  0  0  0  0  0  0
    2.9678    0.2219   -1.3993 C   0  0  0  0  0  0  0  0  0  0  0  0
    2.6776   -0.6215   -2.2785 O   0  0  0  0  0  0  0  0  0  0  0  0
    4.2207    0.1830   -0.6492 C   0  0  0  0  0  0  0  0  0  0  0  0
    5.1385   -0.7842   -0.9132 C   0  0  0  0  0  0  0  0  0  0  0  0
    6.3289   -0.8640   -0.2051 C   0  0  0  0  0  0  0  0  0  0  0  0
    6.5879    0.0667    0.7975 C   0  0  0  0  0  0  0  0  0  0  0  0
    5.6759    1.0443    1.0755 C   0  0  0  0  0  0  0  0  0  0  0  0
    4.4967    1.0979    0.3503 C   0  0  0  0  0  0  0  0  0  0  0  0
   -0.6838   -2.2730    0.7582 N   0  0  0  0  0  0  0  0  0  0  0  0
  1  2  1  0
  2  3  2  0
  3  4  1  0
  4  5  1  0
  4  6  2  0
  6  7  1  0
  7  8  2  0
  8  9  1  0
  9 10  2  0
 10 11  1  0
 11 12  1  0
 11 13  2  0
  6 14  1  0
 14 15  1  0
 15 16  1  0
 16 17  1  0
 17 18  1  0
 18 19  1  0
 19 20  2  0
 19 21  1  0
 21 22  2  0
 22 23  1  0
 23 24  2  0
 24 25  1  0
 25 26  2  0
 14 27  2  0
 27  2  1  0
 13  7  1  0
 26 21  1  0
M  END
>  <zinc_id>  (736) 
ZINC000013559296

>  <ortholog_name>  (736) 
DRTS_PLAFK

>  <gene_name>  (736) 
DRTS_PLAFK

>  <affinity>  (736) 
8.44

>  <chembldocid>  (736) 
17662

>  <title>  (736) 
None

>  <reference.pubmed_id>  (736) 
14736247

>  <reference.doi>  (736) 
None

>  <reference.chembl_id>  (736) 
CHEMBL1138835

>  <reference.journal>  (736) 
J. Med. Chem.

>  <reference.year>  (736) 
2004

$$$$

     RDKit          3D

 27 29  0  0  0  0  0  0  0  0999 V2000
   -0.9588   -4.5290    1.4409 N   0  0  0  0  0  0  0  0  0  0  0  0
   -1.5168   -3.2564    1.1036 C   0  0  0  0  0  0  0  0  0  0  0  0
   -2.8344   -3.0267    1.1221 N   0  0  0  0  0  0  0  0  0  0  0  0
   -3.3019   -1.8115    0.7927 C   0  0  0  0  0  0  0  0  0  0  0  0
   -4.7226   -1.5819    0.8183 N   0  0  0  0  0  0  0  0  0  0  0  0
   -2.4644   -0.7844    0.4349 C   0  0  0  0  0  0  0  0  0  0  0  0
   -2.9592    0.5436    0.1090 C   0  0  0  0  0  0  0  0  0  0  0  0
   -3.7339    0.7768   -1.0160 C   0  0  0  0  0  0  0  0  0  0  0  0
   -4.1984    2.0398   -1.3435 C   0  0  0  0  0  0  0  0  0  0  0  0
   -3.8497    3.0814   -0.4837 C   0  0  0  0  0  0  0  0  0  0  0  0
   -3.0805    2.8686    0.6380 C   0  0  0  0  0  0  0  0  0  0  0  0
   -2.5984    4.1419    1.7469 Cl  0  0  0  0  0  0  0  0  0  0  0  0
   -2.6308    1.5783    0.9352 C   0  0  0  0  0  0  0  0  0  0  0  0
   -1.0963   -1.0469    0.4232 C   0  0  0  0  0  0  0  0  0  0  0  0
   -0.2069    0.0542    0.0485 C   0  0  0  0  0  0  0  0  0  0  0  0
   -0.1259    0.2356   -1.4510 C   0  0  0  0  0  0  0  0  0  0  0  0
    0.8124    1.4309   -1.7135 C   0  0  0  0  0  0  0  0  0  0  0  0
    2.0563    1.2146   -1.1414 O   0  0  0  0  0  0  0  0  0  0  0  0
    2.9678    0.2219   -1.3993 C   0  0  0  0  0  0  0  0  0  0  0  0
    2.6776   -0.6215   -2.2785 O   0  0  0  0  0  0  0  0  0  0  0  0
    4.2207    0.1830   -0.6492 C   0  0  0  0  0  0  0  0  0  0  0  0
    5.1385   -0.7842   -0.9132 C   0  0  0  0  0  0  0  0  0  0  0  0
    6.3289   -0.8640   -0.2051 C   0  0  0  0  0  0  0  0  0  0  0  0
    6.5879    0.0667    0.7975 C   0  0  0  0  0  0  0  0  0  0  0  0
    5.6759    1.0443    1.0755 C   0  0  0  0  0  0  0  0  0  0  0  0
    4.4967    1.0979    0.3503 C   0  0  0  0  0  0  0  0  0  0  0  0
   -0.6838   -2.2730    0.7582 N   0  0  0  0  0  0  0  0  0  0  0  0
  1  2  1  0
  2  3  2  0
  3  4  1  0
  4  5  1  0
  4  6  2  0
  6  7  1  0
  7  8  2  0
  8  9  1  0
  9 10  2  0
 10 11  1  0
 11 12  1  0
 11 13  2  0
  6 14  1  0
 14 15  1  0
 15 16  1  0
 16 17  1  0
 17 18  1  0
 18 19  1  0
 19 20  2  0
 19 21  1  0
 21 22  2  0
 22 23  1  0
 23 24  2  0
 24 25  1  0
 25 26  2  0
 14 27  2  0
 27  2  1  0
 13  7  1  0
 26 21  1  0
M  END
>  <zinc_id>  (737) 
ZINC000013559296

>  <ortholog_name>  (737) 
DRTS_PLAFK

>  <gene_name>  (737) 
DRTS_PLAFK

>  <affinity>  (737) 
5.12

>  <chembldocid>  (737) 
17662

>  <title>  (737) 
None

>  <reference.pubmed_id>  (737) 
14736247

>  <reference.doi>  (737) 
None

>  <reference.chembl_id>  (737) 
CHEMBL1138835

>  <reference.journal>  (737) 
J. Med. Chem.

>  <reference.year>  (737) 
2004

$$$$

     RDKit          3D

 29 31  0  0  0  0  0  0  0  0999 V2000
    1.7684   -4.6082   -3.1778 N   0  0  0  0  0  0  0  0  0  0  0  0
    2.1997   -3.4872   -2.3869 C   0  0  0  0  0  0  0  0  0  0  0  0
    3.3364   -2.8323   -2.6852 N   0  0  0  0  0  0  0  0  0  0  0  0
    3.7311   -1.7736   -1.9279 C   0  0  0  0  0  0  0  0  0  0  0  0
    4.9323   -1.0819   -2.2432 N   0  0  0  0  0  0  0  0  0  0  0  0
    2.9985   -1.3376   -0.8465 C   0  0  0  0  0  0  0  0  0  0  0  0
    3.3856   -0.2071   -0.0076 C   0  0  0  0  0  0  0  0  0  0  0  0
    4.3148   -0.3354    1.0118 C   0  0  0  0  0  0  0  0  0  0  0  0
    4.6960    0.7176    1.8187 C   0  0  0  0  0  0  0  0  0  0  0  0
    4.1442    1.9511    1.6203 C   0  0  0  0  0  0  0  0  0  0  0  0
    3.2082    2.1208    0.6077 C   0  0  0  0  0  0  0  0  0  0  0  0
    2.5155    3.7255    0.3800 Cl  0  0  0  0  0  0  0  0  0  0  0  0
    2.8392    1.0534   -0.1903 C   0  0  0  0  0  0  0  0  0  0  0  0
    1.8348   -2.0236   -0.5573 C   0  0  0  0  0  0  0  0  0  0  0  0
    1.0304   -1.5668    0.6058 C   0  0  0  0  0  0  0  0  0  0  0  0
    0.2799   -0.3123    0.2198 C   0  0  0  0  0  0  0  0  0  0  0  0
   -0.6353   -0.6343   -0.9545 C   0  0  0  0  0  0  0  0  0  0  0  0
   -1.3720    0.4956   -1.3715 O   0  0  0  0  0  0  0  0  0  0  0  0
   -2.2192    1.1043   -0.4515 C   0  0  0  0  0  0  0  0  0  0  0  0
   -2.2890    0.6190    0.7114 O   0  0  0  0  0  0  0  0  0  0  0  0
   -2.9867    2.2102   -0.7444 O   0  0  0  0  0  0  0  0  0  0  0  0
   -3.8442    2.8343    0.1687 C   0  0  0  0  0  0  0  0  0  0  0  0
   -4.9007    1.9169    0.6636 C   0  0  0  0  0  0  0  0  0  0  0  0
   -4.9995    0.6327    0.2227 C   0  0  0  0  0  0  0  0  0  0  0  0
   -5.9621   -0.2347    0.6615 C   0  0  0  0  0  0  0  0  0  0  0  0
   -6.8679    0.2249    1.5933 C   0  0  0  0  0  0  0  0  0  0  0  0
   -6.8046    1.5339    2.0735 C   0  0  0  0  0  0  0  0  0  0  0  0
   -5.8130    2.3616    1.5947 C   0  0  0  0  0  0  0  0  0  0  0  0
    1.4793   -3.0670   -1.3324 N   0  0  0  0  0  0  0  0  0  0  0  0
  1  2  1  0
  2  3  2  0
  3  4  1  0
  4  5  1  0
  4  6  2  0
  6  7  1  0
  7  8  2  0
  8  9  1  0
  9 10  2  0
 10 11  1  0
 11 12  1  0
 11 13  2  0
  6 14  1  0
 14 15  1  0
 15 16  1  0
 16 17  1  0
 17 18  1  0
 18 19  1  0
 19 20  2  0
 19 21  1  0
 21 22  1  0
 22 23  1  0
 23 24  2  0
 24 25  1  0
 25 26  2  0
 26 27  1  0
 27 28  2  0
 14 29  2  0
 29  2  1  0
 13  7  1  0
 28 23  1  0
M  END
>  <zinc_id>  (738) 
ZINC000013559297

>  <ortholog_name>  (738) 
DRTS_PLAFK

>  <gene_name>  (738) 
DRTS_PLAFK

>  <affinity>  (738) 
9.10

>  <chembldocid>  (738) 
17662

>  <title>  (738) 
None

>  <reference.pubmed_id>  (738) 
14736247

>  <reference.doi>  (738) 
None

>  <reference.chembl_id>  (738) 
CHEMBL1138835

>  <reference.journal>  (738) 
J. Med. Chem.

>  <reference.year>  (738) 
2004

$$$$

     RDKit          3D

 29 31  0  0  0  0  0  0  0  0999 V2000
    1.7684   -4.6082   -3.1778 N   0  0  0  0  0  0  0  0  0  0  0  0
    2.1997   -3.4872   -2.3869 C   0  0  0  0  0  0  0  0  0  0  0  0
    3.3364   -2.8323   -2.6852 N   0  0  0  0  0  0  0  0  0  0  0  0
    3.7311   -1.7736   -1.9279 C   0  0  0  0  0  0  0  0  0  0  0  0
    4.9323   -1.0819   -2.2432 N   0  0  0  0  0  0  0  0  0  0  0  0
    2.9985   -1.3376   -0.8465 C   0  0  0  0  0  0  0  0  0  0  0  0
    3.3856   -0.2071   -0.0076 C   0  0  0  0  0  0  0  0  0  0  0  0
    4.3148   -0.3354    1.0118 C   0  0  0  0  0  0  0  0  0  0  0  0
    4.6960    0.7176    1.8187 C   0  0  0  0  0  0  0  0  0  0  0  0
    4.1442    1.9511    1.6203 C   0  0  0  0  0  0  0  0  0  0  0  0
    3.2082    2.1208    0.6077 C   0  0  0  0  0  0  0  0  0  0  0  0
    2.5155    3.7255    0.3800 Cl  0  0  0  0  0  0  0  0  0  0  0  0
    2.8392    1.0534   -0.1903 C   0  0  0  0  0  0  0  0  0  0  0  0
    1.8348   -2.0236   -0.5573 C   0  0  0  0  0  0  0  0  0  0  0  0
    1.0304   -1.5668    0.6058 C   0  0  0  0  0  0  0  0  0  0  0  0
    0.2799   -0.3123    0.2198 C   0  0  0  0  0  0  0  0  0  0  0  0
   -0.6353   -0.6343   -0.9545 C   0  0  0  0  0  0  0  0  0  0  0  0
   -1.3720    0.4956   -1.3715 O   0  0  0  0  0  0  0  0  0  0  0  0
   -2.2192    1.1043   -0.4515 C   0  0  0  0  0  0  0  0  0  0  0  0
   -2.2890    0.6190    0.7114 O   0  0  0  0  0  0  0  0  0  0  0  0
   -2.9867    2.2102   -0.7444 O   0  0  0  0  0  0  0  0  0  0  0  0
   -3.8442    2.8343    0.1687 C   0  0  0  0  0  0  0  0  0  0  0  0
   -4.9007    1.9169    0.6636 C   0  0  0  0  0  0  0  0  0  0  0  0
   -4.9995    0.6327    0.2227 C   0  0  0  0  0  0  0  0  0  0  0  0
   -5.9621   -0.2347    0.6615 C   0  0  0  0  0  0  0  0  0  0  0  0
   -6.8679    0.2249    1.5933 C   0  0  0  0  0  0  0  0  0  0  0  0
   -6.8046    1.5339    2.0735 C   0  0  0  0  0  0  0  0  0  0  0  0
   -5.8130    2.3616    1.5947 C   0  0  0  0  0  0  0  0  0  0  0  0
    1.4793   -3.0670   -1.3324 N   0  0  0  0  0  0  0  0  0  0  0  0
  1  2  1  0
  2  3  2  0
  3  4  1  0
  4  5  1  0
  4  6  2  0
  6  7  1  0
  7  8  2  0
  8  9  1  0
  9 10  2  0
 10 11  1  0
 11 12  1  0
 11 13  2  0
  6 14  1  0
 14 15  1  0
 15 16  1  0
 16 17  1  0
 17 18  1  0
 18 19  1  0
 19 20  2  0
 19 21  1  0
 21 22  1  0
 22 23  1  0
 23 24  2  0
 24 25  1  0
 25 26  2  0
 26 27  1  0
 27 28  2  0
 14 29  2  0
 29  2  1  0
 13  7  1  0
 28 23  1  0
M  END
>  <zinc_id>  (739) 
ZINC000013559297

>  <ortholog_name>  (739) 
DRTS_PLAFK

>  <gene_name>  (739) 
DRTS_PLAFK

>  <affinity>  (739) 
8.96

>  <chembldocid>  (739) 
17662

>  <title>  (739) 
None

>  <reference.pubmed_id>  (739) 
14736247

>  <reference.doi>  (739) 
None

>  <reference.chembl_id>  (739) 
CHEMBL1138835

>  <reference.journal>  (739) 
J. Med. Chem.

>  <reference.year>  (739) 
2004

$$$$

     RDKit          3D

 29 31  0  0  0  0  0  0  0  0999 V2000
    1.7684   -4.6082   -3.1778 N   0  0  0  0  0  0  0  0  0  0  0  0
    2.1997   -3.4872   -2.3869 C   0  0  0  0  0  0  0  0  0  0  0  0
    3.3364   -2.8323   -2.6852 N   0  0  0  0  0  0  0  0  0  0  0  0
    3.7311   -1.7736   -1.9279 C   0  0  0  0  0  0  0  0  0  0  0  0
    4.9323   -1.0819   -2.2432 N   0  0  0  0  0  0  0  0  0  0  0  0
    2.9985   -1.3376   -0.8465 C   0  0  0  0  0  0  0  0  0  0  0  0
    3.3856   -0.2071   -0.0076 C   0  0  0  0  0  0  0  0  0  0  0  0
    4.3148   -0.3354    1.0118 C   0  0  0  0  0  0  0  0  0  0  0  0
    4.6960    0.7176    1.8187 C   0  0  0  0  0  0  0  0  0  0  0  0
    4.1442    1.9511    1.6203 C   0  0  0  0  0  0  0  0  0  0  0  0
    3.2082    2.1208    0.6077 C   0  0  0  0  0  0  0  0  0  0  0  0
    2.5155    3.7255    0.3800 Cl  0  0  0  0  0  0  0  0  0  0  0  0
    2.8392    1.0534   -0.1903 C   0  0  0  0  0  0  0  0  0  0  0  0
    1.8348   -2.0236   -0.5573 C   0  0  0  0  0  0  0  0  0  0  0  0
    1.0304   -1.5668    0.6058 C   0  0  0  0  0  0  0  0  0  0  0  0
    0.2799   -0.3123    0.2198 C   0  0  0  0  0  0  0  0  0  0  0  0
   -0.6353   -0.6343   -0.9545 C   0  0  0  0  0  0  0  0  0  0  0  0
   -1.3720    0.4956   -1.3715 O   0  0  0  0  0  0  0  0  0  0  0  0
   -2.2192    1.1043   -0.4515 C   0  0  0  0  0  0  0  0  0  0  0  0
   -2.2890    0.6190    0.7114 O   0  0  0  0  0  0  0  0  0  0  0  0
   -2.9867    2.2102   -0.7444 O   0  0  0  0  0  0  0  0  0  0  0  0
   -3.8442    2.8343    0.1687 C   0  0  0  0  0  0  0  0  0  0  0  0
   -4.9007    1.9169    0.6636 C   0  0  0  0  0  0  0  0  0  0  0  0
   -4.9995    0.6327    0.2227 C   0  0  0  0  0  0  0  0  0  0  0  0
   -5.9621   -0.2347    0.6615 C   0  0  0  0  0  0  0  0  0  0  0  0
   -6.8679    0.2249    1.5933 C   0  0  0  0  0  0  0  0  0  0  0  0
   -6.8046    1.5339    2.0735 C   0  0  0  0  0  0  0  0  0  0  0  0
   -5.8130    2.3616    1.5947 C   0  0  0  0  0  0  0  0  0  0  0  0
    1.4793   -3.0670   -1.3324 N   0  0  0  0  0  0  0  0  0  0  0  0
  1  2  1  0
  2  3  2  0
  3  4  1  0
  4  5  1  0
  4  6  2  0
  6  7  1  0
  7  8  2  0
  8  9  1  0
  9 10  2  0
 10 11  1  0
 11 12  1  0
 11 13  2  0
  6 14  1  0
 14 15  1  0
 15 16  1  0
 16 17  1  0
 17 18  1  0
 18 19  1  0
 19 20  2  0
 19 21  1  0
 21 22  1  0
 22 23  1  0
 23 24  2  0
 24 25  1  0
 25 26  2  0
 26 27  1  0
 27 28  2  0
 14 29  2  0
 29  2  1  0
 13  7  1  0
 28 23  1  0
M  END
>  <zinc_id>  (740) 
ZINC000013559297

>  <ortholog_name>  (740) 
DRTS_PLAFK

>  <gene_name>  (740) 
DRTS_PLAFK

>  <affinity>  (740) 
8.92

>  <chembldocid>  (740) 
17662

>  <title>  (740) 
None

>  <reference.pubmed_id>  (740) 
14736247

>  <reference.doi>  (740) 
None

>  <reference.chembl_id>  (740) 
CHEMBL1138835

>  <reference.journal>  (740) 
J. Med. Chem.

>  <reference.year>  (740) 
2004

$$$$

     RDKit          3D

 29 31  0  0  0  0  0  0  0  0999 V2000
    1.7684   -4.6082   -3.1778 N   0  0  0  0  0  0  0  0  0  0  0  0
    2.1997   -3.4872   -2.3869 C   0  0  0  0  0  0  0  0  0  0  0  0
    3.3364   -2.8323   -2.6852 N   0  0  0  0  0  0  0  0  0  0  0  0
    3.7311   -1.7736   -1.9279 C   0  0  0  0  0  0  0  0  0  0  0  0
    4.9323   -1.0819   -2.2432 N   0  0  0  0  0  0  0  0  0  0  0  0
    2.9985   -1.3376   -0.8465 C   0  0  0  0  0  0  0  0  0  0  0  0
    3.3856   -0.2071   -0.0076 C   0  0  0  0  0  0  0  0  0  0  0  0
    4.3148   -0.3354    1.0118 C   0  0  0  0  0  0  0  0  0  0  0  0
    4.6960    0.7176    1.8187 C   0  0  0  0  0  0  0  0  0  0  0  0
    4.1442    1.9511    1.6203 C   0  0  0  0  0  0  0  0  0  0  0  0
    3.2082    2.1208    0.6077 C   0  0  0  0  0  0  0  0  0  0  0  0
    2.5155    3.7255    0.3800 Cl  0  0  0  0  0  0  0  0  0  0  0  0
    2.8392    1.0534   -0.1903 C   0  0  0  0  0  0  0  0  0  0  0  0
    1.8348   -2.0236   -0.5573 C   0  0  0  0  0  0  0  0  0  0  0  0
    1.0304   -1.5668    0.6058 C   0  0  0  0  0  0  0  0  0  0  0  0
    0.2799   -0.3123    0.2198 C   0  0  0  0  0  0  0  0  0  0  0  0
   -0.6353   -0.6343   -0.9545 C   0  0  0  0  0  0  0  0  0  0  0  0
   -1.3720    0.4956   -1.3715 O   0  0  0  0  0  0  0  0  0  0  0  0
   -2.2192    1.1043   -0.4515 C   0  0  0  0  0  0  0  0  0  0  0  0
   -2.2890    0.6190    0.7114 O   0  0  0  0  0  0  0  0  0  0  0  0
   -2.9867    2.2102   -0.7444 O   0  0  0  0  0  0  0  0  0  0  0  0
   -3.8442    2.8343    0.1687 C   0  0  0  0  0  0  0  0  0  0  0  0
   -4.9007    1.9169    0.6636 C   0  0  0  0  0  0  0  0  0  0  0  0
   -4.9995    0.6327    0.2227 C   0  0  0  0  0  0  0  0  0  0  0  0
   -5.9621   -0.2347    0.6615 C   0  0  0  0  0  0  0  0  0  0  0  0
   -6.8679    0.2249    1.5933 C   0  0  0  0  0  0  0  0  0  0  0  0
   -6.8046    1.5339    2.0735 C   0  0  0  0  0  0  0  0  0  0  0  0
   -5.8130    2.3616    1.5947 C   0  0  0  0  0  0  0  0  0  0  0  0
    1.4793   -3.0670   -1.3324 N   0  0  0  0  0  0  0  0  0  0  0  0
  1  2  1  0
  2  3  2  0
  3  4  1  0
  4  5  1  0
  4  6  2  0
  6  7  1  0
  7  8  2  0
  8  9  1  0
  9 10  2  0
 10 11  1  0
 11 12  1  0
 11 13  2  0
  6 14  1  0
 14 15  1  0
 15 16  1  0
 16 17  1  0
 17 18  1  0
 18 19  1  0
 19 20  2  0
 19 21  1  0
 21 22  1  0
 22 23  1  0
 23 24  2  0
 24 25  1  0
 25 26  2  0
 26 27  1  0
 27 28  2  0
 14 29  2  0
 29  2  1  0
 13  7  1  0
 28 23  1  0
M  END
>  <zinc_id>  (741) 
ZINC000013559297

>  <ortholog_name>  (741) 
DRTS_PLAFK

>  <gene_name>  (741) 
DRTS_PLAFK

>  <affinity>  (741) 
5.72

>  <chembldocid>  (741) 
17662

>  <title>  (741) 
None

>  <reference.pubmed_id>  (741) 
14736247

>  <reference.doi>  (741) 
None

>  <reference.chembl_id>  (741) 
CHEMBL1138835

>  <reference.journal>  (741) 
J. Med. Chem.

>  <reference.year>  (741) 
2004

$$$$

     RDKit          3D

 29 31  0  0  0  0  0  0  0  0999 V2000
    1.7684   -4.6082   -3.1778 N   0  0  0  0  0  0  0  0  0  0  0  0
    2.1997   -3.4872   -2.3869 C   0  0  0  0  0  0  0  0  0  0  0  0
    3.3364   -2.8323   -2.6852 N   0  0  0  0  0  0  0  0  0  0  0  0
    3.7311   -1.7736   -1.9279 C   0  0  0  0  0  0  0  0  0  0  0  0
    4.9323   -1.0819   -2.2432 N   0  0  0  0  0  0  0  0  0  0  0  0
    2.9985   -1.3376   -0.8465 C   0  0  0  0  0  0  0  0  0  0  0  0
    3.3856   -0.2071   -0.0076 C   0  0  0  0  0  0  0  0  0  0  0  0
    4.3148   -0.3354    1.0118 C   0  0  0  0  0  0  0  0  0  0  0  0
    4.6960    0.7176    1.8187 C   0  0  0  0  0  0  0  0  0  0  0  0
    4.1442    1.9511    1.6203 C   0  0  0  0  0  0  0  0  0  0  0  0
    3.2082    2.1208    0.6077 C   0  0  0  0  0  0  0  0  0  0  0  0
    2.5155    3.7255    0.3800 Cl  0  0  0  0  0  0  0  0  0  0  0  0
    2.8392    1.0534   -0.1903 C   0  0  0  0  0  0  0  0  0  0  0  0
    1.8348   -2.0236   -0.5573 C   0  0  0  0  0  0  0  0  0  0  0  0
    1.0304   -1.5668    0.6058 C   0  0  0  0  0  0  0  0  0  0  0  0
    0.2799   -0.3123    0.2198 C   0  0  0  0  0  0  0  0  0  0  0  0
   -0.6353   -0.6343   -0.9545 C   0  0  0  0  0  0  0  0  0  0  0  0
   -1.3720    0.4956   -1.3715 O   0  0  0  0  0  0  0  0  0  0  0  0
   -2.2192    1.1043   -0.4515 C   0  0  0  0  0  0  0  0  0  0  0  0
   -2.2890    0.6190    0.7114 O   0  0  0  0  0  0  0  0  0  0  0  0
   -2.9867    2.2102   -0.7444 O   0  0  0  0  0  0  0  0  0  0  0  0
   -3.8442    2.8343    0.1687 C   0  0  0  0  0  0  0  0  0  0  0  0
   -4.9007    1.9169    0.6636 C   0  0  0  0  0  0  0  0  0  0  0  0
   -4.9995    0.6327    0.2227 C   0  0  0  0  0  0  0  0  0  0  0  0
   -5.9621   -0.2347    0.6615 C   0  0  0  0  0  0  0  0  0  0  0  0
   -6.8679    0.2249    1.5933 C   0  0  0  0  0  0  0  0  0  0  0  0
   -6.8046    1.5339    2.0735 C   0  0  0  0  0  0  0  0  0  0  0  0
   -5.8130    2.3616    1.5947 C   0  0  0  0  0  0  0  0  0  0  0  0
    1.4793   -3.0670   -1.3324 N   0  0  0  0  0  0  0  0  0  0  0  0
  1  2  1  0
  2  3  2  0
  3  4  1  0
  4  5  1  0
  4  6  2  0
  6  7  1  0
  7  8  2  0
  8  9  1  0
  9 10  2  0
 10 11  1  0
 11 12  1  0
 11 13  2  0
  6 14  1  0
 14 15  1  0
 15 16  1  0
 16 17  1  0
 17 18  1  0
 18 19  1  0
 19 20  2  0
 19 21  1  0
 21 22  1  0
 22 23  1  0
 23 24  2  0
 24 25  1  0
 25 26  2  0
 26 27  1  0
 27 28  2  0
 14 29  2  0
 29  2  1  0
 13  7  1  0
 28 23  1  0
M  END
>  <zinc_id>  (742) 
ZINC000013559297

>  <ortholog_name>  (742) 
DRTS_PLAFK

>  <gene_name>  (742) 
DRTS_PLAFK

>  <affinity>  (742) 
8.44

>  <chembldocid>  (742) 
17662

>  <title>  (742) 
None

>  <reference.pubmed_id>  (742) 
14736247

>  <reference.doi>  (742) 
None

>  <reference.chembl_id>  (742) 
CHEMBL1138835

>  <reference.journal>  (742) 
J. Med. Chem.

>  <reference.year>  (742) 
2004

$$$$

     RDKit          3D

 29 31  0  0  0  0  0  0  0  0999 V2000
    1.7684   -4.6082   -3.1778 N   0  0  0  0  0  0  0  0  0  0  0  0
    2.1997   -3.4872   -2.3869 C   0  0  0  0  0  0  0  0  0  0  0  0
    3.3364   -2.8323   -2.6852 N   0  0  0  0  0  0  0  0  0  0  0  0
    3.7311   -1.7736   -1.9279 C   0  0  0  0  0  0  0  0  0  0  0  0
    4.9323   -1.0819   -2.2432 N   0  0  0  0  0  0  0  0  0  0  0  0
    2.9985   -1.3376   -0.8465 C   0  0  0  0  0  0  0  0  0  0  0  0
    3.3856   -0.2071   -0.0076 C   0  0  0  0  0  0  0  0  0  0  0  0
    4.3148   -0.3354    1.0118 C   0  0  0  0  0  0  0  0  0  0  0  0
    4.6960    0.7176    1.8187 C   0  0  0  0  0  0  0  0  0  0  0  0
    4.1442    1.9511    1.6203 C   0  0  0  0  0  0  0  0  0  0  0  0
    3.2082    2.1208    0.6077 C   0  0  0  0  0  0  0  0  0  0  0  0
    2.5155    3.7255    0.3800 Cl  0  0  0  0  0  0  0  0  0  0  0  0
    2.8392    1.0534   -0.1903 C   0  0  0  0  0  0  0  0  0  0  0  0
    1.8348   -2.0236   -0.5573 C   0  0  0  0  0  0  0  0  0  0  0  0
    1.0304   -1.5668    0.6058 C   0  0  0  0  0  0  0  0  0  0  0  0
    0.2799   -0.3123    0.2198 C   0  0  0  0  0  0  0  0  0  0  0  0
   -0.6353   -0.6343   -0.9545 C   0  0  0  0  0  0  0  0  0  0  0  0
   -1.3720    0.4956   -1.3715 O   0  0  0  0  0  0  0  0  0  0  0  0
   -2.2192    1.1043   -0.4515 C   0  0  0  0  0  0  0  0  0  0  0  0
   -2.2890    0.6190    0.7114 O   0  0  0  0  0  0  0  0  0  0  0  0
   -2.9867    2.2102   -0.7444 O   0  0  0  0  0  0  0  0  0  0  0  0
   -3.8442    2.8343    0.1687 C   0  0  0  0  0  0  0  0  0  0  0  0
   -4.9007    1.9169    0.6636 C   0  0  0  0  0  0  0  0  0  0  0  0
   -4.9995    0.6327    0.2227 C   0  0  0  0  0  0  0  0  0  0  0  0
   -5.9621   -0.2347    0.6615 C   0  0  0  0  0  0  0  0  0  0  0  0
   -6.8679    0.2249    1.5933 C   0  0  0  0  0  0  0  0  0  0  0  0
   -6.8046    1.5339    2.0735 C   0  0  0  0  0  0  0  0  0  0  0  0
   -5.8130    2.3616    1.5947 C   0  0  0  0  0  0  0  0  0  0  0  0
    1.4793   -3.0670   -1.3324 N   0  0  0  0  0  0  0  0  0  0  0  0
  1  2  1  0
  2  3  2  0
  3  4  1  0
  4  5  1  0
  4  6  2  0
  6  7  1  0
  7  8  2  0
  8  9  1  0
  9 10  2  0
 10 11  1  0
 11 12  1  0
 11 13  2  0
  6 14  1  0
 14 15  1  0
 15 16  1  0
 16 17  1  0
 17 18  1  0
 18 19  1  0
 19 20  2  0
 19 21  1  0
 21 22  1  0
 22 23  1  0
 23 24  2  0
 24 25  1  0
 25 26  2  0
 26 27  1  0
 27 28  2  0
 14 29  2  0
 29  2  1  0
 13  7  1  0
 28 23  1  0
M  END
>  <zinc_id>  (743) 
ZINC000013559297

>  <ortholog_name>  (743) 
DRTS_PLAFK

>  <gene_name>  (743) 
DRTS_PLAFK

>  <affinity>  (743) 
5.39

>  <chembldocid>  (743) 
17662

>  <title>  (743) 
None

>  <reference.pubmed_id>  (743) 
14736247

>  <reference.doi>  (743) 
None

>  <reference.chembl_id>  (743) 
CHEMBL1138835

>  <reference.journal>  (743) 
J. Med. Chem.

>  <reference.year>  (743) 
2004

$$$$

     RDKit          3D

 29 31  0  0  0  0  0  0  0  0999 V2000
    1.7684   -4.6082   -3.1778 N   0  0  0  0  0  0  0  0  0  0  0  0
    2.1997   -3.4872   -2.3869 C   0  0  0  0  0  0  0  0  0  0  0  0
    3.3364   -2.8323   -2.6852 N   0  0  0  0  0  0  0  0  0  0  0  0
    3.7311   -1.7736   -1.9279 C   0  0  0  0  0  0  0  0  0  0  0  0
    4.9323   -1.0819   -2.2432 N   0  0  0  0  0  0  0  0  0  0  0  0
    2.9985   -1.3376   -0.8465 C   0  0  0  0  0  0  0  0  0  0  0  0
    3.3856   -0.2071   -0.0076 C   0  0  0  0  0  0  0  0  0  0  0  0
    4.3148   -0.3354    1.0118 C   0  0  0  0  0  0  0  0  0  0  0  0
    4.6960    0.7176    1.8187 C   0  0  0  0  0  0  0  0  0  0  0  0
    4.1442    1.9511    1.6203 C   0  0  0  0  0  0  0  0  0  0  0  0
    3.2082    2.1208    0.6077 C   0  0  0  0  0  0  0  0  0  0  0  0
    2.5155    3.7255    0.3800 Cl  0  0  0  0  0  0  0  0  0  0  0  0
    2.8392    1.0534   -0.1903 C   0  0  0  0  0  0  0  0  0  0  0  0
    1.8348   -2.0236   -0.5573 C   0  0  0  0  0  0  0  0  0  0  0  0
    1.0304   -1.5668    0.6058 C   0  0  0  0  0  0  0  0  0  0  0  0
    0.2799   -0.3123    0.2198 C   0  0  0  0  0  0  0  0  0  0  0  0
   -0.6353   -0.6343   -0.9545 C   0  0  0  0  0  0  0  0  0  0  0  0
   -1.3720    0.4956   -1.3715 O   0  0  0  0  0  0  0  0  0  0  0  0
   -2.2192    1.1043   -0.4515 C   0  0  0  0  0  0  0  0  0  0  0  0
   -2.2890    0.6190    0.7114 O   0  0  0  0  0  0  0  0  0  0  0  0
   -2.9867    2.2102   -0.7444 O   0  0  0  0  0  0  0  0  0  0  0  0
   -3.8442    2.8343    0.1687 C   0  0  0  0  0  0  0  0  0  0  0  0
   -4.9007    1.9169    0.6636 C   0  0  0  0  0  0  0  0  0  0  0  0
   -4.9995    0.6327    0.2227 C   0  0  0  0  0  0  0  0  0  0  0  0
   -5.9621   -0.2347    0.6615 C   0  0  0  0  0  0  0  0  0  0  0  0
   -6.8679    0.2249    1.5933 C   0  0  0  0  0  0  0  0  0  0  0  0
   -6.8046    1.5339    2.0735 C   0  0  0  0  0  0  0  0  0  0  0  0
   -5.8130    2.3616    1.5947 C   0  0  0  0  0  0  0  0  0  0  0  0
    1.4793   -3.0670   -1.3324 N   0  0  0  0  0  0  0  0  0  0  0  0
  1  2  1  0
  2  3  2  0
  3  4  1  0
  4  5  1  0
  4  6  2  0
  6  7  1  0
  7  8  2  0
  8  9  1  0
  9 10  2  0
 10 11  1  0
 11 12  1  0
 11 13  2  0
  6 14  1  0
 14 15  1  0
 15 16  1  0
 16 17  1  0
 17 18  1  0
 18 19  1  0
 19 20  2  0
 19 21  1  0
 21 22  1  0
 22 23  1  0
 23 24  2  0
 24 25  1  0
 25 26  2  0
 26 27  1  0
 27 28  2  0
 14 29  2  0
 29  2  1  0
 13  7  1  0
 28 23  1  0
M  END
>  <zinc_id>  (744) 
ZINC000013559297

>  <ortholog_name>  (744) 
DRTS_PLAFK

>  <gene_name>  (744) 
DRTS_PLAFK

>  <affinity>  (744) 
5.23

>  <chembldocid>  (744) 
17662

>  <title>  (744) 
None

>  <reference.pubmed_id>  (744) 
14736247

>  <reference.doi>  (744) 
None

>  <reference.chembl_id>  (744) 
CHEMBL1138835

>  <reference.journal>  (744) 
J. Med. Chem.

>  <reference.year>  (744) 
2004

$$$$

     RDKit          3D

 19 20  0  0  0  0  0  0  0  0999 V2000
   -3.0746    1.1507    1.3591 C   0  0  0  0  0  0  0  0  0  0  0  0
   -1.6530    1.0826    1.8434 C   0  0  0  0  0  0  0  0  0  0  0  0
   -1.1822   -0.3486    1.7128 C   0  0  0  0  0  0  0  0  0  0  0  0
   -1.2474   -0.8136    0.2665 C   0  0  1  0  0  0  0  0  0  0  0  0
   -0.7424   -2.2673    0.3065 C   0  0  0  0  0  0  0  0  0  0  0  0
   -2.5585   -0.7847   -0.2632 N   0  0  0  0  0  0  0  0  0  0  0  0
   -2.8554   -0.1525   -1.3292 C   0  0  0  0  0  0  0  0  0  0  0  0
   -4.2133   -0.1456   -1.8429 N   0  0  0  0  0  0  0  0  0  0  0  0
   -1.8583    0.5554   -2.0299 N   0  0  0  0  0  0  0  0  0  0  0  0
   -0.6181    0.5971   -1.6332 C   0  0  0  0  0  0  0  0  0  0  0  0
    0.3059    1.3412   -2.4160 N   0  0  0  0  0  0  0  0  0  0  0  0
   -0.2479   -0.0874   -0.4609 N   0  0  0  0  0  0  0  0  0  0  0  0
    1.0888   -0.0703    0.0092 C   0  0  0  0  0  0  0  0  0  0  0  0
    2.0225   -1.0088   -0.3708 C   0  0  0  0  0  0  0  0  0  0  0  0
    3.3126   -0.9695    0.0998 C   0  0  0  0  0  0  0  0  0  0  0  0
    3.7531   -0.0011    0.9722 C   0  0  0  0  0  0  0  0  0  0  0  0
    5.4111   -0.0237    1.5226 Cl  0  0  0  0  0  0  0  0  0  0  0  0
    2.8285    0.9400    1.3573 C   0  0  0  0  0  0  0  0  0  0  0  0
    1.5287    0.9185    0.8966 C   0  0  0  0  0  0  0  0  0  0  0  0
  1  2  1  0
  2  3  1  0
  3  4  1  0
  4  5  1  1
  4  6  1  0
  6  7  2  0
  7  8  1  0
  7  9  1  0
  9 10  2  0
 10 11  1  0
 10 12  1  0
 12 13  1  0
 13 14  2  0
 14 15  1  0
 15 16  2  0
 16 17  1  0
 16 18  1  0
 18 19  2  0
 12  4  1  0
 19 13  1  0
M  END
>  <zinc_id>  (745) 
ZINC000013559298

>  <ortholog_name>  (745) 
DRTS_PLAFK

>  <gene_name>  (745) 
DRTS_PLAFK

>  <affinity>  (745) 
8.46

>  <chembldocid>  (745) 
17662

>  <title>  (745) 
None

>  <reference.pubmed_id>  (745) 
14736247

>  <reference.doi>  (745) 
None

>  <reference.chembl_id>  (745) 
CHEMBL1138835

>  <reference.journal>  (745) 
J. Med. Chem.

>  <reference.year>  (745) 
2004

$$$$

     RDKit          3D

 19 20  0  0  0  0  0  0  0  0999 V2000
   -3.0746    1.1507    1.3591 C   0  0  0  0  0  0  0  0  0  0  0  0
   -1.6530    1.0826    1.8434 C   0  0  0  0  0  0  0  0  0  0  0  0
   -1.1822   -0.3486    1.7128 C   0  0  0  0  0  0  0  0  0  0  0  0
   -1.2474   -0.8136    0.2665 C   0  0  1  0  0  0  0  0  0  0  0  0
   -0.7424   -2.2673    0.3065 C   0  0  0  0  0  0  0  0  0  0  0  0
   -2.5585   -0.7847   -0.2632 N   0  0  0  0  0  0  0  0  0  0  0  0
   -2.8554   -0.1525   -1.3292 C   0  0  0  0  0  0  0  0  0  0  0  0
   -4.2133   -0.1456   -1.8429 N   0  0  0  0  0  0  0  0  0  0  0  0
   -1.8583    0.5554   -2.0299 N   0  0  0  0  0  0  0  0  0  0  0  0
   -0.6181    0.5971   -1.6332 C   0  0  0  0  0  0  0  0  0  0  0  0
    0.3059    1.3412   -2.4160 N   0  0  0  0  0  0  0  0  0  0  0  0
   -0.2479   -0.0874   -0.4609 N   0  0  0  0  0  0  0  0  0  0  0  0
    1.0888   -0.0703    0.0092 C   0  0  0  0  0  0  0  0  0  0  0  0
    2.0225   -1.0088   -0.3708 C   0  0  0  0  0  0  0  0  0  0  0  0
    3.3126   -0.9695    0.0998 C   0  0  0  0  0  0  0  0  0  0  0  0
    3.7531   -0.0011    0.9722 C   0  0  0  0  0  0  0  0  0  0  0  0
    5.4111   -0.0237    1.5226 Cl  0  0  0  0  0  0  0  0  0  0  0  0
    2.8285    0.9400    1.3573 C   0  0  0  0  0  0  0  0  0  0  0  0
    1.5287    0.9185    0.8966 C   0  0  0  0  0  0  0  0  0  0  0  0
  1  2  1  0
  2  3  1  0
  3  4  1  0
  4  5  1  1
  4  6  1  0
  6  7  2  0
  7  8  1  0
  7  9  1  0
  9 10  2  0
 10 11  1  0
 10 12  1  0
 12 13  1  0
 13 14  2  0
 14 15  1  0
 15 16  2  0
 16 17  1  0
 16 18  1  0
 18 19  2  0
 12  4  1  0
 19 13  1  0
M  END
>  <zinc_id>  (746) 
ZINC000013559298

>  <ortholog_name>  (746) 
DRTS_PLAFK

>  <gene_name>  (746) 
DRTS_PLAFK

>  <affinity>  (746) 
5.44

>  <chembldocid>  (746) 
17662

>  <title>  (746) 
None

>  <reference.pubmed_id>  (746) 
14736247

>  <reference.doi>  (746) 
None

>  <reference.chembl_id>  (746) 
CHEMBL1138835

>  <reference.journal>  (746) 
J. Med. Chem.

>  <reference.year>  (746) 
2004

$$$$

     RDKit          3D

 19 20  0  0  0  0  0  0  0  0999 V2000
   -3.0746    1.1507    1.3591 C   0  0  0  0  0  0  0  0  0  0  0  0
   -1.6530    1.0826    1.8434 C   0  0  0  0  0  0  0  0  0  0  0  0
   -1.1822   -0.3486    1.7128 C   0  0  0  0  0  0  0  0  0  0  0  0
   -1.2474   -0.8136    0.2665 C   0  0  1  0  0  0  0  0  0  0  0  0
   -0.7424   -2.2673    0.3065 C   0  0  0  0  0  0  0  0  0  0  0  0
   -2.5585   -0.7847   -0.2632 N   0  0  0  0  0  0  0  0  0  0  0  0
   -2.8554   -0.1525   -1.3292 C   0  0  0  0  0  0  0  0  0  0  0  0
   -4.2133   -0.1456   -1.8429 N   0  0  0  0  0  0  0  0  0  0  0  0
   -1.8583    0.5554   -2.0299 N   0  0  0  0  0  0  0  0  0  0  0  0
   -0.6181    0.5971   -1.6332 C   0  0  0  0  0  0  0  0  0  0  0  0
    0.3059    1.3412   -2.4160 N   0  0  0  0  0  0  0  0  0  0  0  0
   -0.2479   -0.0874   -0.4609 N   0  0  0  0  0  0  0  0  0  0  0  0
    1.0888   -0.0703    0.0092 C   0  0  0  0  0  0  0  0  0  0  0  0
    2.0225   -1.0088   -0.3708 C   0  0  0  0  0  0  0  0  0  0  0  0
    3.3126   -0.9695    0.0998 C   0  0  0  0  0  0  0  0  0  0  0  0
    3.7531   -0.0011    0.9722 C   0  0  0  0  0  0  0  0  0  0  0  0
    5.4111   -0.0237    1.5226 Cl  0  0  0  0  0  0  0  0  0  0  0  0
    2.8285    0.9400    1.3573 C   0  0  0  0  0  0  0  0  0  0  0  0
    1.5287    0.9185    0.8966 C   0  0  0  0  0  0  0  0  0  0  0  0
  1  2  1  0
  2  3  1  0
  3  4  1  0
  4  5  1  1
  4  6  1  0
  6  7  2  0
  7  8  1  0
  7  9  1  0
  9 10  2  0
 10 11  1  0
 10 12  1  0
 12 13  1  0
 13 14  2  0
 14 15  1  0
 15 16  2  0
 16 17  1  0
 16 18  1  0
 18 19  2  0
 12  4  1  0
 19 13  1  0
M  END
>  <zinc_id>  (747) 
ZINC000013559298

>  <ortholog_name>  (747) 
DRTS_PLAFK

>  <gene_name>  (747) 
DRTS_PLAFK

>  <affinity>  (747) 
5.35

>  <chembldocid>  (747) 
17662

>  <title>  (747) 
None

>  <reference.pubmed_id>  (747) 
14736247

>  <reference.doi>  (747) 
None

>  <reference.chembl_id>  (747) 
CHEMBL1138835

>  <reference.journal>  (747) 
J. Med. Chem.

>  <reference.year>  (747) 
2004

$$$$

     RDKit          3D

 19 20  0  0  0  0  0  0  0  0999 V2000
   -3.0746    1.1507    1.3591 C   0  0  0  0  0  0  0  0  0  0  0  0
   -1.6530    1.0826    1.8434 C   0  0  0  0  0  0  0  0  0  0  0  0
   -1.1822   -0.3486    1.7128 C   0  0  0  0  0  0  0  0  0  0  0  0
   -1.2474   -0.8136    0.2665 C   0  0  1  0  0  0  0  0  0  0  0  0
   -0.7424   -2.2673    0.3065 C   0  0  0  0  0  0  0  0  0  0  0  0
   -2.5585   -0.7847   -0.2632 N   0  0  0  0  0  0  0  0  0  0  0  0
   -2.8554   -0.1525   -1.3292 C   0  0  0  0  0  0  0  0  0  0  0  0
   -4.2133   -0.1456   -1.8429 N   0  0  0  0  0  0  0  0  0  0  0  0
   -1.8583    0.5554   -2.0299 N   0  0  0  0  0  0  0  0  0  0  0  0
   -0.6181    0.5971   -1.6332 C   0  0  0  0  0  0  0  0  0  0  0  0
    0.3059    1.3412   -2.4160 N   0  0  0  0  0  0  0  0  0  0  0  0
   -0.2479   -0.0874   -0.4609 N   0  0  0  0  0  0  0  0  0  0  0  0
    1.0888   -0.0703    0.0092 C   0  0  0  0  0  0  0  0  0  0  0  0
    2.0225   -1.0088   -0.3708 C   0  0  0  0  0  0  0  0  0  0  0  0
    3.3126   -0.9695    0.0998 C   0  0  0  0  0  0  0  0  0  0  0  0
    3.7531   -0.0011    0.9722 C   0  0  0  0  0  0  0  0  0  0  0  0
    5.4111   -0.0237    1.5226 Cl  0  0  0  0  0  0  0  0  0  0  0  0
    2.8285    0.9400    1.3573 C   0  0  0  0  0  0  0  0  0  0  0  0
    1.5287    0.9185    0.8966 C   0  0  0  0  0  0  0  0  0  0  0  0
  1  2  1  0
  2  3  1  0
  3  4  1  0
  4  5  1  1
  4  6  1  0
  6  7  2  0
  7  8  1  0
  7  9  1  0
  9 10  2  0
 10 11  1  0
 10 12  1  0
 12 13  1  0
 13 14  2  0
 14 15  1  0
 15 16  2  0
 16 17  1  0
 16 18  1  0
 18 19  2  0
 12  4  1  0
 19 13  1  0
M  END
>  <zinc_id>  (748) 
ZINC000013559298

>  <ortholog_name>  (748) 
DRTS_PLAFK

>  <gene_name>  (748) 
DRTS_PLAFK

>  <affinity>  (748) 
6.25

>  <chembldocid>  (748) 
17662

>  <title>  (748) 
None

>  <reference.pubmed_id>  (748) 
14736247

>  <reference.doi>  (748) 
None

>  <reference.chembl_id>  (748) 
CHEMBL1138835

>  <reference.journal>  (748) 
J. Med. Chem.

>  <reference.year>  (748) 
2004

$$$$

     RDKit          3D

 19 20  0  0  0  0  0  0  0  0999 V2000
   -3.0746    1.1507    1.3591 C   0  0  0  0  0  0  0  0  0  0  0  0
   -1.6530    1.0826    1.8434 C   0  0  0  0  0  0  0  0  0  0  0  0
   -1.1822   -0.3486    1.7128 C   0  0  0  0  0  0  0  0  0  0  0  0
   -1.2474   -0.8136    0.2665 C   0  0  1  0  0  0  0  0  0  0  0  0
   -0.7424   -2.2673    0.3065 C   0  0  0  0  0  0  0  0  0  0  0  0
   -2.5585   -0.7847   -0.2632 N   0  0  0  0  0  0  0  0  0  0  0  0
   -2.8554   -0.1525   -1.3292 C   0  0  0  0  0  0  0  0  0  0  0  0
   -4.2133   -0.1456   -1.8429 N   0  0  0  0  0  0  0  0  0  0  0  0
   -1.8583    0.5554   -2.0299 N   0  0  0  0  0  0  0  0  0  0  0  0
   -0.6181    0.5971   -1.6332 C   0  0  0  0  0  0  0  0  0  0  0  0
    0.3059    1.3412   -2.4160 N   0  0  0  0  0  0  0  0  0  0  0  0
   -0.2479   -0.0874   -0.4609 N   0  0  0  0  0  0  0  0  0  0  0  0
    1.0888   -0.0703    0.0092 C   0  0  0  0  0  0  0  0  0  0  0  0
    2.0225   -1.0088   -0.3708 C   0  0  0  0  0  0  0  0  0  0  0  0
    3.3126   -0.9695    0.0998 C   0  0  0  0  0  0  0  0  0  0  0  0
    3.7531   -0.0011    0.9722 C   0  0  0  0  0  0  0  0  0  0  0  0
    5.4111   -0.0237    1.5226 Cl  0  0  0  0  0  0  0  0  0  0  0  0
    2.8285    0.9400    1.3573 C   0  0  0  0  0  0  0  0  0  0  0  0
    1.5287    0.9185    0.8966 C   0  0  0  0  0  0  0  0  0  0  0  0
  1  2  1  0
  2  3  1  0
  3  4  1  0
  4  5  1  1
  4  6  1  0
  6  7  2  0
  7  8  1  0
  7  9  1  0
  9 10  2  0
 10 11  1  0
 10 12  1  0
 12 13  1  0
 13 14  2  0
 14 15  1  0
 15 16  2  0
 16 17  1  0
 16 18  1  0
 18 19  2  0
 12  4  1  0
 19 13  1  0
M  END
>  <zinc_id>  (749) 
ZINC000013559298

>  <ortholog_name>  (749) 
DRTS_PLAFK

>  <gene_name>  (749) 
DRTS_PLAFK

>  <affinity>  (749) 
5.03

>  <chembldocid>  (749) 
17662

>  <title>  (749) 
None

>  <reference.pubmed_id>  (749) 
14736247

>  <reference.doi>  (749) 
None

>  <reference.chembl_id>  (749) 
CHEMBL1138835

>  <reference.journal>  (749) 
J. Med. Chem.

>  <reference.year>  (749) 
2004

$$$$

     RDKit          3D

 19 20  0  0  0  0  0  0  0  0999 V2000
   -3.0636   -2.0575    1.1807 C   0  0  0  0  0  0  0  0  0  0  0  0
   -1.7377   -1.3244    1.1669 C   0  0  0  0  0  0  0  0  0  0  0  0
   -2.0113    0.1258    1.0077 C   0  0  0  0  0  0  0  0  0  0  0  0
   -0.7890    0.9983    0.9751 C   0  0  2  0  0  0  0  0  0  0  0  0
   -0.0761    0.7724    2.3190 C   0  0  0  0  0  0  0  0  0  0  0  0
   -1.2492    2.3684    1.0191 N   0  0  0  0  0  0  0  0  0  0  0  0
   -0.9413    3.2856    0.2031 C   0  0  0  0  0  0  0  0  0  0  0  0
   -1.5126    4.5736    0.4349 N   0  0  0  0  0  0  0  0  0  0  0  0
   -0.0736    3.0069   -0.8689 N   0  0  0  0  0  0  0  0  0  0  0  0
    0.3952    1.8154   -1.0019 C   0  0  0  0  0  0  0  0  0  0  0  0
    1.2844    1.5098   -2.0918 N   0  0  0  0  0  0  0  0  0  0  0  0
    0.0911    0.7396   -0.1240 N   0  0  0  0  0  0  0  0  0  0  0  0
    0.6449   -0.5546   -0.3319 C   0  0  0  0  0  0  0  0  0  0  0  0
    1.8513   -0.9405    0.2341 C   0  0  0  0  0  0  0  0  0  0  0  0
    2.3931   -2.1928    0.0346 C   0  0  0  0  0  0  0  0  0  0  0  0
    1.7525   -3.1311   -0.7467 C   0  0  0  0  0  0  0  0  0  0  0  0
    2.4650   -4.7148   -0.9825 Cl  0  0  0  0  0  0  0  0  0  0  0  0
    0.5523   -2.7682   -1.3186 C   0  0  0  0  0  0  0  0  0  0  0  0
    0.0245   -1.5120   -1.1090 C   0  0  0  0  0  0  0  0  0  0  0  0
  1  2  1  0
  2  3  1  0
  3  4  1  0
  4  5  1  1
  4  6  1  0
  6  7  2  0
  7  8  1  0
  7  9  1  0
  9 10  2  0
 10 11  1  0
 10 12  1  0
 12 13  1  0
 13 14  2  0
 14 15  1  0
 15 16  2  0
 16 17  1  0
 16 18  1  0
 18 19  2  0
 12  4  1  0
 19 13  1  0
M  END
>  <zinc_id>  (750) 
ZINC000013559299

>  <ortholog_name>  (750) 
DRTS_PLAFK

>  <gene_name>  (750) 
DRTS_PLAFK

>  <affinity>  (750) 
8.46

>  <chembldocid>  (750) 
17662

>  <title>  (750) 
None

>  <reference.pubmed_id>  (750) 
14736247

>  <reference.doi>  (750) 
None

>  <reference.chembl_id>  (750) 
CHEMBL1138835

>  <reference.journal>  (750) 
J. Med. Chem.

>  <reference.year>  (750) 
2004

$$$$

     RDKit          3D

 19 20  0  0  0  0  0  0  0  0999 V2000
   -3.0636   -2.0575    1.1807 C   0  0  0  0  0  0  0  0  0  0  0  0
   -1.7377   -1.3244    1.1669 C   0  0  0  0  0  0  0  0  0  0  0  0
   -2.0113    0.1258    1.0077 C   0  0  0  0  0  0  0  0  0  0  0  0
   -0.7890    0.9983    0.9751 C   0  0  2  0  0  0  0  0  0  0  0  0
   -0.0761    0.7724    2.3190 C   0  0  0  0  0  0  0  0  0  0  0  0
   -1.2492    2.3684    1.0191 N   0  0  0  0  0  0  0  0  0  0  0  0
   -0.9413    3.2856    0.2031 C   0  0  0  0  0  0  0  0  0  0  0  0
   -1.5126    4.5736    0.4349 N   0  0  0  0  0  0  0  0  0  0  0  0
   -0.0736    3.0069   -0.8689 N   0  0  0  0  0  0  0  0  0  0  0  0
    0.3952    1.8154   -1.0019 C   0  0  0  0  0  0  0  0  0  0  0  0
    1.2844    1.5098   -2.0918 N   0  0  0  0  0  0  0  0  0  0  0  0
    0.0911    0.7396   -0.1240 N   0  0  0  0  0  0  0  0  0  0  0  0
    0.6449   -0.5546   -0.3319 C   0  0  0  0  0  0  0  0  0  0  0  0
    1.8513   -0.9405    0.2341 C   0  0  0  0  0  0  0  0  0  0  0  0
    2.3931   -2.1928    0.0346 C   0  0  0  0  0  0  0  0  0  0  0  0
    1.7525   -3.1311   -0.7467 C   0  0  0  0  0  0  0  0  0  0  0  0
    2.4650   -4.7148   -0.9825 Cl  0  0  0  0  0  0  0  0  0  0  0  0
    0.5523   -2.7682   -1.3186 C   0  0  0  0  0  0  0  0  0  0  0  0
    0.0245   -1.5120   -1.1090 C   0  0  0  0  0  0  0  0  0  0  0  0
  1  2  1  0
  2  3  1  0
  3  4  1  0
  4  5  1  1
  4  6  1  0
  6  7  2  0
  7  8  1  0
  7  9  1  0
  9 10  2  0
 10 11  1  0
 10 12  1  0
 12 13  1  0
 13 14  2  0
 14 15  1  0
 15 16  2  0
 16 17  1  0
 16 18  1  0
 18 19  2  0
 12  4  1  0
 19 13  1  0
M  END
>  <zinc_id>  (751) 
ZINC000013559299

>  <ortholog_name>  (751) 
DRTS_PLAFK

>  <gene_name>  (751) 
DRTS_PLAFK

>  <affinity>  (751) 
5.44

>  <chembldocid>  (751) 
17662

>  <title>  (751) 
None

>  <reference.pubmed_id>  (751) 
14736247

>  <reference.doi>  (751) 
None

>  <reference.chembl_id>  (751) 
CHEMBL1138835

>  <reference.journal>  (751) 
J. Med. Chem.

>  <reference.year>  (751) 
2004

$$$$

     RDKit          3D

 19 20  0  0  0  0  0  0  0  0999 V2000
   -3.0636   -2.0575    1.1807 C   0  0  0  0  0  0  0  0  0  0  0  0
   -1.7377   -1.3244    1.1669 C   0  0  0  0  0  0  0  0  0  0  0  0
   -2.0113    0.1258    1.0077 C   0  0  0  0  0  0  0  0  0  0  0  0
   -0.7890    0.9983    0.9751 C   0  0  2  0  0  0  0  0  0  0  0  0
   -0.0761    0.7724    2.3190 C   0  0  0  0  0  0  0  0  0  0  0  0
   -1.2492    2.3684    1.0191 N   0  0  0  0  0  0  0  0  0  0  0  0
   -0.9413    3.2856    0.2031 C   0  0  0  0  0  0  0  0  0  0  0  0
   -1.5126    4.5736    0.4349 N   0  0  0  0  0  0  0  0  0  0  0  0
   -0.0736    3.0069   -0.8689 N   0  0  0  0  0  0  0  0  0  0  0  0
    0.3952    1.8154   -1.0019 C   0  0  0  0  0  0  0  0  0  0  0  0
    1.2844    1.5098   -2.0918 N   0  0  0  0  0  0  0  0  0  0  0  0
    0.0911    0.7396   -0.1240 N   0  0  0  0  0  0  0  0  0  0  0  0
    0.6449   -0.5546   -0.3319 C   0  0  0  0  0  0  0  0  0  0  0  0
    1.8513   -0.9405    0.2341 C   0  0  0  0  0  0  0  0  0  0  0  0
    2.3931   -2.1928    0.0346 C   0  0  0  0  0  0  0  0  0  0  0  0
    1.7525   -3.1311   -0.7467 C   0  0  0  0  0  0  0  0  0  0  0  0
    2.4650   -4.7148   -0.9825 Cl  0  0  0  0  0  0  0  0  0  0  0  0
    0.5523   -2.7682   -1.3186 C   0  0  0  0  0  0  0  0  0  0  0  0
    0.0245   -1.5120   -1.1090 C   0  0  0  0  0  0  0  0  0  0  0  0
  1  2  1  0
  2  3  1  0
  3  4  1  0
  4  5  1  1
  4  6  1  0
  6  7  2  0
  7  8  1  0
  7  9  1  0
  9 10  2  0
 10 11  1  0
 10 12  1  0
 12 13  1  0
 13 14  2  0
 14 15  1  0
 15 16  2  0
 16 17  1  0
 16 18  1  0
 18 19  2  0
 12  4  1  0
 19 13  1  0
M  END
>  <zinc_id>  (752) 
ZINC000013559299

>  <ortholog_name>  (752) 
DRTS_PLAFK

>  <gene_name>  (752) 
DRTS_PLAFK

>  <affinity>  (752) 
5.35

>  <chembldocid>  (752) 
17662

>  <title>  (752) 
None

>  <reference.pubmed_id>  (752) 
14736247

>  <reference.doi>  (752) 
None

>  <reference.chembl_id>  (752) 
CHEMBL1138835

>  <reference.journal>  (752) 
J. Med. Chem.

>  <reference.year>  (752) 
2004

$$$$

     RDKit          3D

 19 20  0  0  0  0  0  0  0  0999 V2000
   -3.0636   -2.0575    1.1807 C   0  0  0  0  0  0  0  0  0  0  0  0
   -1.7377   -1.3244    1.1669 C   0  0  0  0  0  0  0  0  0  0  0  0
   -2.0113    0.1258    1.0077 C   0  0  0  0  0  0  0  0  0  0  0  0
   -0.7890    0.9983    0.9751 C   0  0  2  0  0  0  0  0  0  0  0  0
   -0.0761    0.7724    2.3190 C   0  0  0  0  0  0  0  0  0  0  0  0
   -1.2492    2.3684    1.0191 N   0  0  0  0  0  0  0  0  0  0  0  0
   -0.9413    3.2856    0.2031 C   0  0  0  0  0  0  0  0  0  0  0  0
   -1.5126    4.5736    0.4349 N   0  0  0  0  0  0  0  0  0  0  0  0
   -0.0736    3.0069   -0.8689 N   0  0  0  0  0  0  0  0  0  0  0  0
    0.3952    1.8154   -1.0019 C   0  0  0  0  0  0  0  0  0  0  0  0
    1.2844    1.5098   -2.0918 N   0  0  0  0  0  0  0  0  0  0  0  0
    0.0911    0.7396   -0.1240 N   0  0  0  0  0  0  0  0  0  0  0  0
    0.6449   -0.5546   -0.3319 C   0  0  0  0  0  0  0  0  0  0  0  0
    1.8513   -0.9405    0.2341 C   0  0  0  0  0  0  0  0  0  0  0  0
    2.3931   -2.1928    0.0346 C   0  0  0  0  0  0  0  0  0  0  0  0
    1.7525   -3.1311   -0.7467 C   0  0  0  0  0  0  0  0  0  0  0  0
    2.4650   -4.7148   -0.9825 Cl  0  0  0  0  0  0  0  0  0  0  0  0
    0.5523   -2.7682   -1.3186 C   0  0  0  0  0  0  0  0  0  0  0  0
    0.0245   -1.5120   -1.1090 C   0  0  0  0  0  0  0  0  0  0  0  0
  1  2  1  0
  2  3  1  0
  3  4  1  0
  4  5  1  1
  4  6  1  0
  6  7  2  0
  7  8  1  0
  7  9  1  0
  9 10  2  0
 10 11  1  0
 10 12  1  0
 12 13  1  0
 13 14  2  0
 14 15  1  0
 15 16  2  0
 16 17  1  0
 16 18  1  0
 18 19  2  0
 12  4  1  0
 19 13  1  0
M  END
>  <zinc_id>  (753) 
ZINC000013559299

>  <ortholog_name>  (753) 
DRTS_PLAFK

>  <gene_name>  (753) 
DRTS_PLAFK

>  <affinity>  (753) 
6.25

>  <chembldocid>  (753) 
17662

>  <title>  (753) 
None

>  <reference.pubmed_id>  (753) 
14736247

>  <reference.doi>  (753) 
None

>  <reference.chembl_id>  (753) 
CHEMBL1138835

>  <reference.journal>  (753) 
J. Med. Chem.

>  <reference.year>  (753) 
2004

$$$$

     RDKit          3D

 19 20  0  0  0  0  0  0  0  0999 V2000
   -3.0636   -2.0575    1.1807 C   0  0  0  0  0  0  0  0  0  0  0  0
   -1.7377   -1.3244    1.1669 C   0  0  0  0  0  0  0  0  0  0  0  0
   -2.0113    0.1258    1.0077 C   0  0  0  0  0  0  0  0  0  0  0  0
   -0.7890    0.9983    0.9751 C   0  0  2  0  0  0  0  0  0  0  0  0
   -0.0761    0.7724    2.3190 C   0  0  0  0  0  0  0  0  0  0  0  0
   -1.2492    2.3684    1.0191 N   0  0  0  0  0  0  0  0  0  0  0  0
   -0.9413    3.2856    0.2031 C   0  0  0  0  0  0  0  0  0  0  0  0
   -1.5126    4.5736    0.4349 N   0  0  0  0  0  0  0  0  0  0  0  0
   -0.0736    3.0069   -0.8689 N   0  0  0  0  0  0  0  0  0  0  0  0
    0.3952    1.8154   -1.0019 C   0  0  0  0  0  0  0  0  0  0  0  0
    1.2844    1.5098   -2.0918 N   0  0  0  0  0  0  0  0  0  0  0  0
    0.0911    0.7396   -0.1240 N   0  0  0  0  0  0  0  0  0  0  0  0
    0.6449   -0.5546   -0.3319 C   0  0  0  0  0  0  0  0  0  0  0  0
    1.8513   -0.9405    0.2341 C   0  0  0  0  0  0  0  0  0  0  0  0
    2.3931   -2.1928    0.0346 C   0  0  0  0  0  0  0  0  0  0  0  0
    1.7525   -3.1311   -0.7467 C   0  0  0  0  0  0  0  0  0  0  0  0
    2.4650   -4.7148   -0.9825 Cl  0  0  0  0  0  0  0  0  0  0  0  0
    0.5523   -2.7682   -1.3186 C   0  0  0  0  0  0  0  0  0  0  0  0
    0.0245   -1.5120   -1.1090 C   0  0  0  0  0  0  0  0  0  0  0  0
  1  2  1  0
  2  3  1  0
  3  4  1  0
  4  5  1  1
  4  6  1  0
  6  7  2  0
  7  8  1  0
  7  9  1  0
  9 10  2  0
 10 11  1  0
 10 12  1  0
 12 13  1  0
 13 14  2  0
 14 15  1  0
 15 16  2  0
 16 17  1  0
 16 18  1  0
 18 19  2  0
 12  4  1  0
 19 13  1  0
M  END
>  <zinc_id>  (754) 
ZINC000013559299

>  <ortholog_name>  (754) 
DRTS_PLAFK

>  <gene_name>  (754) 
DRTS_PLAFK

>  <affinity>  (754) 
5.03

>  <chembldocid>  (754) 
17662

>  <title>  (754) 
None

>  <reference.pubmed_id>  (754) 
14736247

>  <reference.doi>  (754) 
None

>  <reference.chembl_id>  (754) 
CHEMBL1138835

>  <reference.journal>  (754) 
J. Med. Chem.

>  <reference.year>  (754) 
2004

$$$$

     RDKit          3D

 19 20  0  0  0  0  0  0  0  0999 V2000
   -2.4338   -2.2447   -1.3612 C   0  0  0  0  0  0  0  0  0  0  0  0
   -1.3288   -1.7795   -0.4316 C   0  0  0  0  0  0  0  0  0  0  0  0
   -1.7307   -2.1676    0.9696 C   0  0  0  0  0  0  0  0  0  0  0  0
   -1.2536   -0.2665   -0.5634 C   0  0  1  0  0  0  0  0  0  0  0  0
   -0.9359    0.0515   -2.0228 C   0  0  0  0  0  0  0  0  0  0  0  0
   -2.5486    0.2667   -0.2998 N   0  0  0  0  0  0  0  0  0  0  0  0
   -2.7973    1.1504    0.5750 C   0  0  0  0  0  0  0  0  0  0  0  0
   -4.1316    1.6465    0.7904 N   0  0  0  0  0  0  0  0  0  0  0  0
   -1.7780    1.6986    1.3887 N   0  0  0  0  0  0  0  0  0  0  0  0
   -0.5870    1.2896    1.2323 C   0  0  0  0  0  0  0  0  0  0  0  0
    0.4509    1.8548    2.0681 N   0  0  0  0  0  0  0  0  0  0  0  0
   -0.2624    0.3085    0.2722 N   0  0  0  0  0  0  0  0  0  0  0  0
    1.1311   -0.0717    0.1929 C   0  0  0  0  0  0  0  0  0  0  0  0
    1.5898   -1.1072    0.9701 C   0  0  0  0  0  0  0  0  0  0  0  0
    2.9251   -1.5041    0.9229 C   0  0  0  0  0  0  0  0  0  0  0  0
    3.8020   -0.8548    0.0888 C   0  0  0  0  0  0  0  0  0  0  0  0
    3.3677    0.1742   -0.6899 C   0  0  0  0  0  0  0  0  0  0  0  0
    4.4933    0.9878   -1.7430 Cl  0  0  0  0  0  0  0  0  0  0  0  0
    2.0278    0.5675   -0.6381 C   0  0  0  0  0  0  0  0  0  0  0  0
  1  2  1  0
  2  3  1  0
  2  4  1  0
  4  5  1  6
  4  6  1  0
  6  7  2  0
  7  8  1  0
  7  9  1  0
  9 10  2  0
 10 11  1  0
 10 12  1  0
 12 13  1  0
 13 14  2  0
 14 15  1  0
 15 16  2  0
 16 17  1  0
 17 18  1  0
 17 19  2  0
 12  4  1  0
 19 13  1  0
M  END
>  <zinc_id>  (755) 
ZINC000013559300

>  <ortholog_name>  (755) 
DRTS_PLAFK

>  <gene_name>  (755) 
DRTS_PLAFK

>  <affinity>  (755) 
6.71

>  <chembldocid>  (755) 
17662

>  <title>  (755) 
None

>  <reference.pubmed_id>  (755) 
14736247

>  <reference.doi>  (755) 
None

>  <reference.chembl_id>  (755) 
CHEMBL1138835

>  <reference.journal>  (755) 
J. Med. Chem.

>  <reference.year>  (755) 
2004

$$$$

     RDKit          3D

 19 20  0  0  0  0  0  0  0  0999 V2000
   -2.4338   -2.2447   -1.3612 C   0  0  0  0  0  0  0  0  0  0  0  0
   -1.3288   -1.7795   -0.4316 C   0  0  0  0  0  0  0  0  0  0  0  0
   -1.7307   -2.1676    0.9696 C   0  0  0  0  0  0  0  0  0  0  0  0
   -1.2536   -0.2665   -0.5634 C   0  0  1  0  0  0  0  0  0  0  0  0
   -0.9359    0.0515   -2.0228 C   0  0  0  0  0  0  0  0  0  0  0  0
   -2.5486    0.2667   -0.2998 N   0  0  0  0  0  0  0  0  0  0  0  0
   -2.7973    1.1504    0.5750 C   0  0  0  0  0  0  0  0  0  0  0  0
   -4.1316    1.6465    0.7904 N   0  0  0  0  0  0  0  0  0  0  0  0
   -1.7780    1.6986    1.3887 N   0  0  0  0  0  0  0  0  0  0  0  0
   -0.5870    1.2896    1.2323 C   0  0  0  0  0  0  0  0  0  0  0  0
    0.4509    1.8548    2.0681 N   0  0  0  0  0  0  0  0  0  0  0  0
   -0.2624    0.3085    0.2722 N   0  0  0  0  0  0  0  0  0  0  0  0
    1.1311   -0.0717    0.1929 C   0  0  0  0  0  0  0  0  0  0  0  0
    1.5898   -1.1072    0.9701 C   0  0  0  0  0  0  0  0  0  0  0  0
    2.9251   -1.5041    0.9229 C   0  0  0  0  0  0  0  0  0  0  0  0
    3.8020   -0.8548    0.0888 C   0  0  0  0  0  0  0  0  0  0  0  0
    3.3677    0.1742   -0.6899 C   0  0  0  0  0  0  0  0  0  0  0  0
    4.4933    0.9878   -1.7430 Cl  0  0  0  0  0  0  0  0  0  0  0  0
    2.0278    0.5675   -0.6381 C   0  0  0  0  0  0  0  0  0  0  0  0
  1  2  1  0
  2  3  1  0
  2  4  1  0
  4  5  1  6
  4  6  1  0
  6  7  2  0
  7  8  1  0
  7  9  1  0
  9 10  2  0
 10 11  1  0
 10 12  1  0
 12 13  1  0
 13 14  2  0
 14 15  1  0
 15 16  2  0
 16 17  1  0
 17 18  1  0
 17 19  2  0
 12  4  1  0
 19 13  1  0
M  END
>  <zinc_id>  (756) 
ZINC000013559300

>  <ortholog_name>  (756) 
DRTS_PLAFK

>  <gene_name>  (756) 
DRTS_PLAFK

>  <affinity>  (756) 
6.67

>  <chembldocid>  (756) 
17662

>  <title>  (756) 
None

>  <reference.pubmed_id>  (756) 
14736247

>  <reference.doi>  (756) 
None

>  <reference.chembl_id>  (756) 
CHEMBL1138835

>  <reference.journal>  (756) 
J. Med. Chem.

>  <reference.year>  (756) 
2004

$$$$

     RDKit          3D

 19 20  0  0  0  0  0  0  0  0999 V2000
   -2.4338   -2.2447   -1.3612 C   0  0  0  0  0  0  0  0  0  0  0  0
   -1.3288   -1.7795   -0.4316 C   0  0  0  0  0  0  0  0  0  0  0  0
   -1.7307   -2.1676    0.9696 C   0  0  0  0  0  0  0  0  0  0  0  0
   -1.2536   -0.2665   -0.5634 C   0  0  1  0  0  0  0  0  0  0  0  0
   -0.9359    0.0515   -2.0228 C   0  0  0  0  0  0  0  0  0  0  0  0
   -2.5486    0.2667   -0.2998 N   0  0  0  0  0  0  0  0  0  0  0  0
   -2.7973    1.1504    0.5750 C   0  0  0  0  0  0  0  0  0  0  0  0
   -4.1316    1.6465    0.7904 N   0  0  0  0  0  0  0  0  0  0  0  0
   -1.7780    1.6986    1.3887 N   0  0  0  0  0  0  0  0  0  0  0  0
   -0.5870    1.2896    1.2323 C   0  0  0  0  0  0  0  0  0  0  0  0
    0.4509    1.8548    2.0681 N   0  0  0  0  0  0  0  0  0  0  0  0
   -0.2624    0.3085    0.2722 N   0  0  0  0  0  0  0  0  0  0  0  0
    1.1311   -0.0717    0.1929 C   0  0  0  0  0  0  0  0  0  0  0  0
    1.5898   -1.1072    0.9701 C   0  0  0  0  0  0  0  0  0  0  0  0
    2.9251   -1.5041    0.9229 C   0  0  0  0  0  0  0  0  0  0  0  0
    3.8020   -0.8548    0.0888 C   0  0  0  0  0  0  0  0  0  0  0  0
    3.3677    0.1742   -0.6899 C   0  0  0  0  0  0  0  0  0  0  0  0
    4.4933    0.9878   -1.7430 Cl  0  0  0  0  0  0  0  0  0  0  0  0
    2.0278    0.5675   -0.6381 C   0  0  0  0  0  0  0  0  0  0  0  0
  1  2  1  0
  2  3  1  0
  2  4  1  0
  4  5  1  6
  4  6  1  0
  6  7  2  0
  7  8  1  0
  7  9  1  0
  9 10  2  0
 10 11  1  0
 10 12  1  0
 12 13  1  0
 13 14  2  0
 14 15  1  0
 15 16  2  0
 16 17  1  0
 17 18  1  0
 17 19  2  0
 12  4  1  0
 19 13  1  0
M  END
>  <zinc_id>  (757) 
ZINC000013559300

>  <ortholog_name>  (757) 
DRTS_PLAFK

>  <gene_name>  (757) 
DRTS_PLAFK

>  <affinity>  (757) 
5.66

>  <chembldocid>  (757) 
17662

>  <title>  (757) 
None

>  <reference.pubmed_id>  (757) 
14736247

>  <reference.doi>  (757) 
None

>  <reference.chembl_id>  (757) 
CHEMBL1138835

>  <reference.journal>  (757) 
J. Med. Chem.

>  <reference.year>  (757) 
2004

$$$$

     RDKit          3D

 19 20  0  0  0  0  0  0  0  0999 V2000
   -2.4338   -2.2447   -1.3612 C   0  0  0  0  0  0  0  0  0  0  0  0
   -1.3288   -1.7795   -0.4316 C   0  0  0  0  0  0  0  0  0  0  0  0
   -1.7307   -2.1676    0.9696 C   0  0  0  0  0  0  0  0  0  0  0  0
   -1.2536   -0.2665   -0.5634 C   0  0  1  0  0  0  0  0  0  0  0  0
   -0.9359    0.0515   -2.0228 C   0  0  0  0  0  0  0  0  0  0  0  0
   -2.5486    0.2667   -0.2998 N   0  0  0  0  0  0  0  0  0  0  0  0
   -2.7973    1.1504    0.5750 C   0  0  0  0  0  0  0  0  0  0  0  0
   -4.1316    1.6465    0.7904 N   0  0  0  0  0  0  0  0  0  0  0  0
   -1.7780    1.6986    1.3887 N   0  0  0  0  0  0  0  0  0  0  0  0
   -0.5870    1.2896    1.2323 C   0  0  0  0  0  0  0  0  0  0  0  0
    0.4509    1.8548    2.0681 N   0  0  0  0  0  0  0  0  0  0  0  0
   -0.2624    0.3085    0.2722 N   0  0  0  0  0  0  0  0  0  0  0  0
    1.1311   -0.0717    0.1929 C   0  0  0  0  0  0  0  0  0  0  0  0
    1.5898   -1.1072    0.9701 C   0  0  0  0  0  0  0  0  0  0  0  0
    2.9251   -1.5041    0.9229 C   0  0  0  0  0  0  0  0  0  0  0  0
    3.8020   -0.8548    0.0888 C   0  0  0  0  0  0  0  0  0  0  0  0
    3.3677    0.1742   -0.6899 C   0  0  0  0  0  0  0  0  0  0  0  0
    4.4933    0.9878   -1.7430 Cl  0  0  0  0  0  0  0  0  0  0  0  0
    2.0278    0.5675   -0.6381 C   0  0  0  0  0  0  0  0  0  0  0  0
  1  2  1  0
  2  3  1  0
  2  4  1  0
  4  5  1  6
  4  6  1  0
  6  7  2  0
  7  8  1  0
  7  9  1  0
  9 10  2  0
 10 11  1  0
 10 12  1  0
 12 13  1  0
 13 14  2  0
 14 15  1  0
 15 16  2  0
 16 17  1  0
 17 18  1  0
 17 19  2  0
 12  4  1  0
 19 13  1  0
M  END
>  <zinc_id>  (758) 
ZINC000013559300

>  <ortholog_name>  (758) 
DRTS_PLAFK

>  <gene_name>  (758) 
DRTS_PLAFK

>  <affinity>  (758) 
7.59

>  <chembldocid>  (758) 
17662

>  <title>  (758) 
None

>  <reference.pubmed_id>  (758) 
14736247

>  <reference.doi>  (758) 
None

>  <reference.chembl_id>  (758) 
CHEMBL1138835

>  <reference.journal>  (758) 
J. Med. Chem.

>  <reference.year>  (758) 
2004

$$$$

     RDKit          3D

 19 20  0  0  0  0  0  0  0  0999 V2000
   -2.4338   -2.2447   -1.3612 C   0  0  0  0  0  0  0  0  0  0  0  0
   -1.3288   -1.7795   -0.4316 C   0  0  0  0  0  0  0  0  0  0  0  0
   -1.7307   -2.1676    0.9696 C   0  0  0  0  0  0  0  0  0  0  0  0
   -1.2536   -0.2665   -0.5634 C   0  0  1  0  0  0  0  0  0  0  0  0
   -0.9359    0.0515   -2.0228 C   0  0  0  0  0  0  0  0  0  0  0  0
   -2.5486    0.2667   -0.2998 N   0  0  0  0  0  0  0  0  0  0  0  0
   -2.7973    1.1504    0.5750 C   0  0  0  0  0  0  0  0  0  0  0  0
   -4.1316    1.6465    0.7904 N   0  0  0  0  0  0  0  0  0  0  0  0
   -1.7780    1.6986    1.3887 N   0  0  0  0  0  0  0  0  0  0  0  0
   -0.5870    1.2896    1.2323 C   0  0  0  0  0  0  0  0  0  0  0  0
    0.4509    1.8548    2.0681 N   0  0  0  0  0  0  0  0  0  0  0  0
   -0.2624    0.3085    0.2722 N   0  0  0  0  0  0  0  0  0  0  0  0
    1.1311   -0.0717    0.1929 C   0  0  0  0  0  0  0  0  0  0  0  0
    1.5898   -1.1072    0.9701 C   0  0  0  0  0  0  0  0  0  0  0  0
    2.9251   -1.5041    0.9229 C   0  0  0  0  0  0  0  0  0  0  0  0
    3.8020   -0.8548    0.0888 C   0  0  0  0  0  0  0  0  0  0  0  0
    3.3677    0.1742   -0.6899 C   0  0  0  0  0  0  0  0  0  0  0  0
    4.4933    0.9878   -1.7430 Cl  0  0  0  0  0  0  0  0  0  0  0  0
    2.0278    0.5675   -0.6381 C   0  0  0  0  0  0  0  0  0  0  0  0
  1  2  1  0
  2  3  1  0
  2  4  1  0
  4  5  1  6
  4  6  1  0
  6  7  2  0
  7  8  1  0
  7  9  1  0
  9 10  2  0
 10 11  1  0
 10 12  1  0
 12 13  1  0
 13 14  2  0
 14 15  1  0
 15 16  2  0
 16 17  1  0
 17 18  1  0
 17 19  2  0
 12  4  1  0
 19 13  1  0
M  END
>  <zinc_id>  (759) 
ZINC000013559300

>  <ortholog_name>  (759) 
DRTS_PLAFK

>  <gene_name>  (759) 
DRTS_PLAFK

>  <affinity>  (759) 
6.33

>  <chembldocid>  (759) 
17662

>  <title>  (759) 
None

>  <reference.pubmed_id>  (759) 
14736247

>  <reference.doi>  (759) 
None

>  <reference.chembl_id>  (759) 
CHEMBL1138835

>  <reference.journal>  (759) 
J. Med. Chem.

>  <reference.year>  (759) 
2004

$$$$

     RDKit          3D

 19 20  0  0  0  0  0  0  0  0999 V2000
    0.2936    2.2220    0.6181 C   0  0  0  0  0  0  0  0  0  0  0  0
   -0.8744    1.4828    1.1683 C   0  0  0  0  0  0  0  0  0  0  0  0
   -1.9543    2.3935    1.7071 C   0  0  0  0  0  0  0  0  0  0  0  0
   -1.4217    0.5340    0.1186 C   0  0  2  0  0  0  0  0  0  0  0  0
   -1.8376    1.3417   -1.1269 C   0  0  0  0  0  0  0  0  0  0  0  0
   -2.6190   -0.1049    0.5465 N   0  0  0  0  0  0  0  0  0  0  0  0
   -2.8319   -1.3498    0.4427 C   0  0  0  0  0  0  0  0  0  0  0  0
   -4.0675   -1.9085    0.8942 N   0  0  0  0  0  0  0  0  0  0  0  0
   -1.8862   -2.2822   -0.0607 N   0  0  0  0  0  0  0  0  0  0  0  0
   -0.7521   -1.7818   -0.4143 C   0  0  0  0  0  0  0  0  0  0  0  0
    0.2911   -2.6135   -0.9457 N   0  0  0  0  0  0  0  0  0  0  0  0
   -0.4271   -0.4083   -0.2612 N   0  0  0  0  0  0  0  0  0  0  0  0
    0.9452    0.0052   -0.4853 C   0  0  0  0  0  0  0  0  0  0  0  0
    1.3546    0.4694   -1.7080 C   0  0  0  0  0  0  0  0  0  0  0  0
    2.6769    0.8459   -1.9417 C   0  0  0  0  0  0  0  0  0  0  0  0
    3.6175    0.7621   -0.9443 C   0  0  0  0  0  0  0  0  0  0  0  0
    3.2167    0.2979    0.2849 C   0  0  0  0  0  0  0  0  0  0  0  0
    4.3850    0.1718    1.5962 Cl  0  0  0  0  0  0  0  0  0  0  0  0
    1.8912   -0.0773    0.5117 C   0  0  0  0  0  0  0  0  0  0  0  0
  1  2  1  0
  2  3  1  0
  2  4  1  0
  4  5  1  6
  4  6  1  0
  6  7  2  0
  7  8  1  0
  7  9  1  0
  9 10  2  0
 10 11  1  0
 10 12  1  0
 12 13  1  0
 13 14  2  0
 14 15  1  0
 15 16  2  0
 16 17  1  0
 17 18  1  0
 17 19  2  0
 12  4  1  0
 19 13  1  0
M  END
>  <zinc_id>  (760) 
ZINC000013559301

>  <ortholog_name>  (760) 
DRTS_PLAFK

>  <gene_name>  (760) 
DRTS_PLAFK

>  <affinity>  (760) 
6.71

>  <chembldocid>  (760) 
17662

>  <title>  (760) 
None

>  <reference.pubmed_id>  (760) 
14736247

>  <reference.doi>  (760) 
None

>  <reference.chembl_id>  (760) 
CHEMBL1138835

>  <reference.journal>  (760) 
J. Med. Chem.

>  <reference.year>  (760) 
2004

$$$$

     RDKit          3D

 19 20  0  0  0  0  0  0  0  0999 V2000
    0.2936    2.2220    0.6181 C   0  0  0  0  0  0  0  0  0  0  0  0
   -0.8744    1.4828    1.1683 C   0  0  0  0  0  0  0  0  0  0  0  0
   -1.9543    2.3935    1.7071 C   0  0  0  0  0  0  0  0  0  0  0  0
   -1.4217    0.5340    0.1186 C   0  0  2  0  0  0  0  0  0  0  0  0
   -1.8376    1.3417   -1.1269 C   0  0  0  0  0  0  0  0  0  0  0  0
   -2.6190   -0.1049    0.5465 N   0  0  0  0  0  0  0  0  0  0  0  0
   -2.8319   -1.3498    0.4427 C   0  0  0  0  0  0  0  0  0  0  0  0
   -4.0675   -1.9085    0.8942 N   0  0  0  0  0  0  0  0  0  0  0  0
   -1.8862   -2.2822   -0.0607 N   0  0  0  0  0  0  0  0  0  0  0  0
   -0.7521   -1.7818   -0.4143 C   0  0  0  0  0  0  0  0  0  0  0  0
    0.2911   -2.6135   -0.9457 N   0  0  0  0  0  0  0  0  0  0  0  0
   -0.4271   -0.4083   -0.2612 N   0  0  0  0  0  0  0  0  0  0  0  0
    0.9452    0.0052   -0.4853 C   0  0  0  0  0  0  0  0  0  0  0  0
    1.3546    0.4694   -1.7080 C   0  0  0  0  0  0  0  0  0  0  0  0
    2.6769    0.8459   -1.9417 C   0  0  0  0  0  0  0  0  0  0  0  0
    3.6175    0.7621   -0.9443 C   0  0  0  0  0  0  0  0  0  0  0  0
    3.2167    0.2979    0.2849 C   0  0  0  0  0  0  0  0  0  0  0  0
    4.3850    0.1718    1.5962 Cl  0  0  0  0  0  0  0  0  0  0  0  0
    1.8912   -0.0773    0.5117 C   0  0  0  0  0  0  0  0  0  0  0  0
  1  2  1  0
  2  3  1  0
  2  4  1  0
  4  5  1  6
  4  6  1  0
  6  7  2  0
  7  8  1  0
  7  9  1  0
  9 10  2  0
 10 11  1  0
 10 12  1  0
 12 13  1  0
 13 14  2  0
 14 15  1  0
 15 16  2  0
 16 17  1  0
 17 18  1  0
 17 19  2  0
 12  4  1  0
 19 13  1  0
M  END
>  <zinc_id>  (761) 
ZINC000013559301

>  <ortholog_name>  (761) 
DRTS_PLAFK

>  <gene_name>  (761) 
DRTS_PLAFK

>  <affinity>  (761) 
6.67

>  <chembldocid>  (761) 
17662

>  <title>  (761) 
None

>  <reference.pubmed_id>  (761) 
14736247

>  <reference.doi>  (761) 
None

>  <reference.chembl_id>  (761) 
CHEMBL1138835

>  <reference.journal>  (761) 
J. Med. Chem.

>  <reference.year>  (761) 
2004

$$$$

     RDKit          3D

 19 20  0  0  0  0  0  0  0  0999 V2000
    0.2936    2.2220    0.6181 C   0  0  0  0  0  0  0  0  0  0  0  0
   -0.8744    1.4828    1.1683 C   0  0  0  0  0  0  0  0  0  0  0  0
   -1.9543    2.3935    1.7071 C   0  0  0  0  0  0  0  0  0  0  0  0
   -1.4217    0.5340    0.1186 C   0  0  2  0  0  0  0  0  0  0  0  0
   -1.8376    1.3417   -1.1269 C   0  0  0  0  0  0  0  0  0  0  0  0
   -2.6190   -0.1049    0.5465 N   0  0  0  0  0  0  0  0  0  0  0  0
   -2.8319   -1.3498    0.4427 C   0  0  0  0  0  0  0  0  0  0  0  0
   -4.0675   -1.9085    0.8942 N   0  0  0  0  0  0  0  0  0  0  0  0
   -1.8862   -2.2822   -0.0607 N   0  0  0  0  0  0  0  0  0  0  0  0
   -0.7521   -1.7818   -0.4143 C   0  0  0  0  0  0  0  0  0  0  0  0
    0.2911   -2.6135   -0.9457 N   0  0  0  0  0  0  0  0  0  0  0  0
   -0.4271   -0.4083   -0.2612 N   0  0  0  0  0  0  0  0  0  0  0  0
    0.9452    0.0052   -0.4853 C   0  0  0  0  0  0  0  0  0  0  0  0
    1.3546    0.4694   -1.7080 C   0  0  0  0  0  0  0  0  0  0  0  0
    2.6769    0.8459   -1.9417 C   0  0  0  0  0  0  0  0  0  0  0  0
    3.6175    0.7621   -0.9443 C   0  0  0  0  0  0  0  0  0  0  0  0
    3.2167    0.2979    0.2849 C   0  0  0  0  0  0  0  0  0  0  0  0
    4.3850    0.1718    1.5962 Cl  0  0  0  0  0  0  0  0  0  0  0  0
    1.8912   -0.0773    0.5117 C   0  0  0  0  0  0  0  0  0  0  0  0
  1  2  1  0
  2  3  1  0
  2  4  1  0
  4  5  1  6
  4  6  1  0
  6  7  2  0
  7  8  1  0
  7  9  1  0
  9 10  2  0
 10 11  1  0
 10 12  1  0
 12 13  1  0
 13 14  2  0
 14 15  1  0
 15 16  2  0
 16 17  1  0
 17 18  1  0
 17 19  2  0
 12  4  1  0
 19 13  1  0
M  END
>  <zinc_id>  (762) 
ZINC000013559301

>  <ortholog_name>  (762) 
DRTS_PLAFK

>  <gene_name>  (762) 
DRTS_PLAFK

>  <affinity>  (762) 
5.66

>  <chembldocid>  (762) 
17662

>  <title>  (762) 
None

>  <reference.pubmed_id>  (762) 
14736247

>  <reference.doi>  (762) 
None

>  <reference.chembl_id>  (762) 
CHEMBL1138835

>  <reference.journal>  (762) 
J. Med. Chem.

>  <reference.year>  (762) 
2004

$$$$

     RDKit          3D

 19 20  0  0  0  0  0  0  0  0999 V2000
    0.2936    2.2220    0.6181 C   0  0  0  0  0  0  0  0  0  0  0  0
   -0.8744    1.4828    1.1683 C   0  0  0  0  0  0  0  0  0  0  0  0
   -1.9543    2.3935    1.7071 C   0  0  0  0  0  0  0  0  0  0  0  0
   -1.4217    0.5340    0.1186 C   0  0  2  0  0  0  0  0  0  0  0  0
   -1.8376    1.3417   -1.1269 C   0  0  0  0  0  0  0  0  0  0  0  0
   -2.6190   -0.1049    0.5465 N   0  0  0  0  0  0  0  0  0  0  0  0
   -2.8319   -1.3498    0.4427 C   0  0  0  0  0  0  0  0  0  0  0  0
   -4.0675   -1.9085    0.8942 N   0  0  0  0  0  0  0  0  0  0  0  0
   -1.8862   -2.2822   -0.0607 N   0  0  0  0  0  0  0  0  0  0  0  0
   -0.7521   -1.7818   -0.4143 C   0  0  0  0  0  0  0  0  0  0  0  0
    0.2911   -2.6135   -0.9457 N   0  0  0  0  0  0  0  0  0  0  0  0
   -0.4271   -0.4083   -0.2612 N   0  0  0  0  0  0  0  0  0  0  0  0
    0.9452    0.0052   -0.4853 C   0  0  0  0  0  0  0  0  0  0  0  0
    1.3546    0.4694   -1.7080 C   0  0  0  0  0  0  0  0  0  0  0  0
    2.6769    0.8459   -1.9417 C   0  0  0  0  0  0  0  0  0  0  0  0
    3.6175    0.7621   -0.9443 C   0  0  0  0  0  0  0  0  0  0  0  0
    3.2167    0.2979    0.2849 C   0  0  0  0  0  0  0  0  0  0  0  0
    4.3850    0.1718    1.5962 Cl  0  0  0  0  0  0  0  0  0  0  0  0
    1.8912   -0.0773    0.5117 C   0  0  0  0  0  0  0  0  0  0  0  0
  1  2  1  0
  2  3  1  0
  2  4  1  0
  4  5  1  6
  4  6  1  0
  6  7  2  0
  7  8  1  0
  7  9  1  0
  9 10  2  0
 10 11  1  0
 10 12  1  0
 12 13  1  0
 13 14  2  0
 14 15  1  0
 15 16  2  0
 16 17  1  0
 17 18  1  0
 17 19  2  0
 12  4  1  0
 19 13  1  0
M  END
>  <zinc_id>  (763) 
ZINC000013559301

>  <ortholog_name>  (763) 
DRTS_PLAFK

>  <gene_name>  (763) 
DRTS_PLAFK

>  <affinity>  (763) 
7.59

>  <chembldocid>  (763) 
17662

>  <title>  (763) 
None

>  <reference.pubmed_id>  (763) 
14736247

>  <reference.doi>  (763) 
None

>  <reference.chembl_id>  (763) 
CHEMBL1138835

>  <reference.journal>  (763) 
J. Med. Chem.

>  <reference.year>  (763) 
2004

$$$$

     RDKit          3D

 19 20  0  0  0  0  0  0  0  0999 V2000
    0.2936    2.2220    0.6181 C   0  0  0  0  0  0  0  0  0  0  0  0
   -0.8744    1.4828    1.1683 C   0  0  0  0  0  0  0  0  0  0  0  0
   -1.9543    2.3935    1.7071 C   0  0  0  0  0  0  0  0  0  0  0  0
   -1.4217    0.5340    0.1186 C   0  0  2  0  0  0  0  0  0  0  0  0
   -1.8376    1.3417   -1.1269 C   0  0  0  0  0  0  0  0  0  0  0  0
   -2.6190   -0.1049    0.5465 N   0  0  0  0  0  0  0  0  0  0  0  0
   -2.8319   -1.3498    0.4427 C   0  0  0  0  0  0  0  0  0  0  0  0
   -4.0675   -1.9085    0.8942 N   0  0  0  0  0  0  0  0  0  0  0  0
   -1.8862   -2.2822   -0.0607 N   0  0  0  0  0  0  0  0  0  0  0  0
   -0.7521   -1.7818   -0.4143 C   0  0  0  0  0  0  0  0  0  0  0  0
    0.2911   -2.6135   -0.9457 N   0  0  0  0  0  0  0  0  0  0  0  0
   -0.4271   -0.4083   -0.2612 N   0  0  0  0  0  0  0  0  0  0  0  0
    0.9452    0.0052   -0.4853 C   0  0  0  0  0  0  0  0  0  0  0  0
    1.3546    0.4694   -1.7080 C   0  0  0  0  0  0  0  0  0  0  0  0
    2.6769    0.8459   -1.9417 C   0  0  0  0  0  0  0  0  0  0  0  0
    3.6175    0.7621   -0.9443 C   0  0  0  0  0  0  0  0  0  0  0  0
    3.2167    0.2979    0.2849 C   0  0  0  0  0  0  0  0  0  0  0  0
    4.3850    0.1718    1.5962 Cl  0  0  0  0  0  0  0  0  0  0  0  0
    1.8912   -0.0773    0.5117 C   0  0  0  0  0  0  0  0  0  0  0  0
  1  2  1  0
  2  3  1  0
  2  4  1  0
  4  5  1  6
  4  6  1  0
  6  7  2  0
  7  8  1  0
  7  9  1  0
  9 10  2  0
 10 11  1  0
 10 12  1  0
 12 13  1  0
 13 14  2  0
 14 15  1  0
 15 16  2  0
 16 17  1  0
 17 18  1  0
 17 19  2  0
 12  4  1  0
 19 13  1  0
M  END
>  <zinc_id>  (764) 
ZINC000013559301

>  <ortholog_name>  (764) 
DRTS_PLAFK

>  <gene_name>  (764) 
DRTS_PLAFK

>  <affinity>  (764) 
6.33

>  <chembldocid>  (764) 
17662

>  <title>  (764) 
None

>  <reference.pubmed_id>  (764) 
14736247

>  <reference.doi>  (764) 
None

>  <reference.chembl_id>  (764) 
CHEMBL1138835

>  <reference.journal>  (764) 
J. Med. Chem.

>  <reference.year>  (764) 
2004

$$$$

     RDKit          3D

 19 20  0  0  0  0  0  0  0  0999 V2000
    0.0128    1.1731   -2.2300 C   0  0  0  0  0  0  0  0  0  0  0  0
   -1.2775    0.5279   -1.8212 C   0  0  0  0  0  0  0  0  0  0  0  0
   -2.4347    1.3238   -2.3810 C   0  0  0  0  0  0  0  0  0  0  0  0
   -1.4110    0.5004   -0.3100 C   0  0  1  0  0  0  0  0  0  0  0  0
   -1.3682    1.9646    0.1315 C   0  0  0  0  0  0  0  0  0  0  0  0
   -2.7297    0.0125   -0.0260 N   0  0  0  0  0  0  0  0  0  0  0  0
   -3.0534   -0.9773    0.6982 C   0  0  0  0  0  0  0  0  0  0  0  0
   -4.4270   -1.3698    0.9070 N   0  0  0  0  0  0  0  0  0  0  0  0
   -2.0332   -1.7307    1.3283 N   0  0  0  0  0  0  0  0  0  0  0  0
   -0.8167   -1.3856    1.1444 C   0  0  0  0  0  0  0  0  0  0  0  0
    0.2051   -2.1661    1.7950 N   0  0  0  0  0  0  0  0  0  0  0  0
   -0.4012   -0.2875    0.3431 N   0  0  0  0  0  0  0  0  0  0  0  0
    0.9876   -0.0133    0.2195 C   0  0  0  0  0  0  0  0  0  0  0  0
    1.6430    0.8428    1.0907 C   0  0  0  0  0  0  0  0  0  0  0  0
    2.9924    1.1029    0.9682 C   0  0  0  0  0  0  0  0  0  0  0  0
    3.7569    0.5265   -0.0239 C   0  0  0  0  0  0  0  0  0  0  0  0
    5.4814    0.8671   -0.1698 Cl  0  0  0  0  0  0  0  0  0  0  0  0
    3.1118   -0.3261   -0.8940 C   0  0  0  0  0  0  0  0  0  0  0  0
    1.7615   -0.5852   -0.7701 C   0  0  0  0  0  0  0  0  0  0  0  0
  1  2  1  0
  2  3  1  0
  2  4  1  0
  4  5  1  1
  4  6  1  0
  6  7  2  0
  7  8  1  0
  7  9  1  0
  9 10  2  0
 10 11  1  0
 10 12  1  0
 12 13  1  0
 13 14  2  0
 14 15  1  0
 15 16  2  0
 16 17  1  0
 16 18  1  0
 18 19  2  0
 12  4  1  0
 19 13  1  0
M  END
>  <zinc_id>  (765) 
ZINC000013559302

>  <ortholog_name>  (765) 
DRTS_PLAFK

>  <gene_name>  (765) 
DRTS_PLAFK

>  <affinity>  (765) 
5.86

>  <chembldocid>  (765) 
17662

>  <title>  (765) 
None

>  <reference.pubmed_id>  (765) 
14736247

>  <reference.doi>  (765) 
None

>  <reference.chembl_id>  (765) 
CHEMBL1138835

>  <reference.journal>  (765) 
J. Med. Chem.

>  <reference.year>  (765) 
2004

$$$$

     RDKit          3D

 19 20  0  0  0  0  0  0  0  0999 V2000
    0.0128    1.1731   -2.2300 C   0  0  0  0  0  0  0  0  0  0  0  0
   -1.2775    0.5279   -1.8212 C   0  0  0  0  0  0  0  0  0  0  0  0
   -2.4347    1.3238   -2.3810 C   0  0  0  0  0  0  0  0  0  0  0  0
   -1.4110    0.5004   -0.3100 C   0  0  1  0  0  0  0  0  0  0  0  0
   -1.3682    1.9646    0.1315 C   0  0  0  0  0  0  0  0  0  0  0  0
   -2.7297    0.0125   -0.0260 N   0  0  0  0  0  0  0  0  0  0  0  0
   -3.0534   -0.9773    0.6982 C   0  0  0  0  0  0  0  0  0  0  0  0
   -4.4270   -1.3698    0.9070 N   0  0  0  0  0  0  0  0  0  0  0  0
   -2.0332   -1.7307    1.3283 N   0  0  0  0  0  0  0  0  0  0  0  0
   -0.8167   -1.3856    1.1444 C   0  0  0  0  0  0  0  0  0  0  0  0
    0.2051   -2.1661    1.7950 N   0  0  0  0  0  0  0  0  0  0  0  0
   -0.4012   -0.2875    0.3431 N   0  0  0  0  0  0  0  0  0  0  0  0
    0.9876   -0.0133    0.2195 C   0  0  0  0  0  0  0  0  0  0  0  0
    1.6430    0.8428    1.0907 C   0  0  0  0  0  0  0  0  0  0  0  0
    2.9924    1.1029    0.9682 C   0  0  0  0  0  0  0  0  0  0  0  0
    3.7569    0.5265   -0.0239 C   0  0  0  0  0  0  0  0  0  0  0  0
    5.4814    0.8671   -0.1698 Cl  0  0  0  0  0  0  0  0  0  0  0  0
    3.1118   -0.3261   -0.8940 C   0  0  0  0  0  0  0  0  0  0  0  0
    1.7615   -0.5852   -0.7701 C   0  0  0  0  0  0  0  0  0  0  0  0
  1  2  1  0
  2  3  1  0
  2  4  1  0
  4  5  1  1
  4  6  1  0
  6  7  2  0
  7  8  1  0
  7  9  1  0
  9 10  2  0
 10 11  1  0
 10 12  1  0
 12 13  1  0
 13 14  2  0
 14 15  1  0
 15 16  2  0
 16 17  1  0
 16 18  1  0
 18 19  2  0
 12  4  1  0
 19 13  1  0
M  END
>  <zinc_id>  (766) 
ZINC000013559302

>  <ortholog_name>  (766) 
DRTS_PLAFK

>  <gene_name>  (766) 
DRTS_PLAFK

>  <affinity>  (766) 
7.44

>  <chembldocid>  (766) 
17662

>  <title>  (766) 
None

>  <reference.pubmed_id>  (766) 
14736247

>  <reference.doi>  (766) 
None

>  <reference.chembl_id>  (766) 
CHEMBL1138835

>  <reference.journal>  (766) 
J. Med. Chem.

>  <reference.year>  (766) 
2004

$$$$

     RDKit          3D

 19 20  0  0  0  0  0  0  0  0999 V2000
    0.0128    1.1731   -2.2300 C   0  0  0  0  0  0  0  0  0  0  0  0
   -1.2775    0.5279   -1.8212 C   0  0  0  0  0  0  0  0  0  0  0  0
   -2.4347    1.3238   -2.3810 C   0  0  0  0  0  0  0  0  0  0  0  0
   -1.4110    0.5004   -0.3100 C   0  0  1  0  0  0  0  0  0  0  0  0
   -1.3682    1.9646    0.1315 C   0  0  0  0  0  0  0  0  0  0  0  0
   -2.7297    0.0125   -0.0260 N   0  0  0  0  0  0  0  0  0  0  0  0
   -3.0534   -0.9773    0.6982 C   0  0  0  0  0  0  0  0  0  0  0  0
   -4.4270   -1.3698    0.9070 N   0  0  0  0  0  0  0  0  0  0  0  0
   -2.0332   -1.7307    1.3283 N   0  0  0  0  0  0  0  0  0  0  0  0
   -0.8167   -1.3856    1.1444 C   0  0  0  0  0  0  0  0  0  0  0  0
    0.2051   -2.1661    1.7950 N   0  0  0  0  0  0  0  0  0  0  0  0
   -0.4012   -0.2875    0.3431 N   0  0  0  0  0  0  0  0  0  0  0  0
    0.9876   -0.0133    0.2195 C   0  0  0  0  0  0  0  0  0  0  0  0
    1.6430    0.8428    1.0907 C   0  0  0  0  0  0  0  0  0  0  0  0
    2.9924    1.1029    0.9682 C   0  0  0  0  0  0  0  0  0  0  0  0
    3.7569    0.5265   -0.0239 C   0  0  0  0  0  0  0  0  0  0  0  0
    5.4814    0.8671   -0.1698 Cl  0  0  0  0  0  0  0  0  0  0  0  0
    3.1118   -0.3261   -0.8940 C   0  0  0  0  0  0  0  0  0  0  0  0
    1.7615   -0.5852   -0.7701 C   0  0  0  0  0  0  0  0  0  0  0  0
  1  2  1  0
  2  3  1  0
  2  4  1  0
  4  5  1  1
  4  6  1  0
  6  7  2  0
  7  8  1  0
  7  9  1  0
  9 10  2  0
 10 11  1  0
 10 12  1  0
 12 13  1  0
 13 14  2  0
 14 15  1  0
 15 16  2  0
 16 17  1  0
 16 18  1  0
 18 19  2  0
 12  4  1  0
 19 13  1  0
M  END
>  <zinc_id>  (767) 
ZINC000013559302

>  <ortholog_name>  (767) 
DRTS_PLAFK

>  <gene_name>  (767) 
DRTS_PLAFK

>  <affinity>  (767) 
5.34

>  <chembldocid>  (767) 
17662

>  <title>  (767) 
None

>  <reference.pubmed_id>  (767) 
14736247

>  <reference.doi>  (767) 
None

>  <reference.chembl_id>  (767) 
CHEMBL1138835

>  <reference.journal>  (767) 
J. Med. Chem.

>  <reference.year>  (767) 
2004

$$$$

     RDKit          3D

 19 20  0  0  0  0  0  0  0  0999 V2000
   -2.6345   -2.5768    0.1875 C   0  0  0  0  0  0  0  0  0  0  0  0
   -1.3974   -1.7964   -0.2763 C   0  0  0  0  0  0  0  0  0  0  0  0
   -0.1712   -2.5195    0.2765 C   0  0  0  0  0  0  0  0  0  0  0  0
   -1.4692   -0.3661    0.2196 C   0  0  2  0  0  0  0  0  0  0  0  0
   -1.5199   -0.3507    1.7531 C   0  0  0  0  0  0  0  0  0  0  0  0
   -2.7303    0.1725   -0.2210 N   0  0  0  0  0  0  0  0  0  0  0  0
   -2.8849    1.2494   -0.8838 C   0  0  0  0  0  0  0  0  0  0  0  0
   -4.1707    1.7321   -1.2928 N   0  0  0  0  0  0  0  0  0  0  0  0
   -1.7726    2.0543   -1.2681 N   0  0  0  0  0  0  0  0  0  0  0  0
   -0.6221    1.6440   -0.9171 C   0  0  0  0  0  0  0  0  0  0  0  0
    0.5082    2.4535   -1.3023 N   0  0  0  0  0  0  0  0  0  0  0  0
   -0.3765    0.4483   -0.1767 N   0  0  0  0  0  0  0  0  0  0  0  0
    0.9755    0.1166    0.1378 C   0  0  0  0  0  0  0  0  0  0  0  0
    1.5687    0.5462    1.3166 C   0  0  0  0  0  0  0  0  0  0  0  0
    2.8807    0.2294    1.6201 C   0  0  0  0  0  0  0  0  0  0  0  0
    3.6537   -0.5267    0.7635 C   0  0  0  0  0  0  0  0  0  0  0  0
    5.3256   -0.9200    1.1690 Cl  0  0  0  0  0  0  0  0  0  0  0  0
    3.0734   -0.9562   -0.4066 C   0  0  0  0  0  0  0  0  0  0  0  0
    1.7637   -0.6341   -0.6990 C   0  0  0  0  0  0  0  0  0  0  0  0
  1  2  1  0
  2  3  1  0
  2  4  1  0
  4  5  1  1
  4  6  1  0
  6  7  2  0
  7  8  1  0
  7  9  1  0
  9 10  2  0
 10 11  1  0
 10 12  1  0
 12 13  1  0
 13 14  2  0
 14 15  1  0
 15 16  2  0
 16 17  1  0
 16 18  1  0
 18 19  2  0
 12  4  1  0
 19 13  1  0
M  END
>  <zinc_id>  (768) 
ZINC000013559303

>  <ortholog_name>  (768) 
DRTS_PLAFK

>  <gene_name>  (768) 
DRTS_PLAFK

>  <affinity>  (768) 
5.86

>  <chembldocid>  (768) 
17662

>  <title>  (768) 
None

>  <reference.pubmed_id>  (768) 
14736247

>  <reference.doi>  (768) 
None

>  <reference.chembl_id>  (768) 
CHEMBL1138835

>  <reference.journal>  (768) 
J. Med. Chem.

>  <reference.year>  (768) 
2004

$$$$

     RDKit          3D

 19 20  0  0  0  0  0  0  0  0999 V2000
   -2.6345   -2.5768    0.1875 C   0  0  0  0  0  0  0  0  0  0  0  0
   -1.3974   -1.7964   -0.2763 C   0  0  0  0  0  0  0  0  0  0  0  0
   -0.1712   -2.5195    0.2765 C   0  0  0  0  0  0  0  0  0  0  0  0
   -1.4692   -0.3661    0.2196 C   0  0  2  0  0  0  0  0  0  0  0  0
   -1.5199   -0.3507    1.7531 C   0  0  0  0  0  0  0  0  0  0  0  0
   -2.7303    0.1725   -0.2210 N   0  0  0  0  0  0  0  0  0  0  0  0
   -2.8849    1.2494   -0.8838 C   0  0  0  0  0  0  0  0  0  0  0  0
   -4.1707    1.7321   -1.2928 N   0  0  0  0  0  0  0  0  0  0  0  0
   -1.7726    2.0543   -1.2681 N   0  0  0  0  0  0  0  0  0  0  0  0
   -0.6221    1.6440   -0.9171 C   0  0  0  0  0  0  0  0  0  0  0  0
    0.5082    2.4535   -1.3023 N   0  0  0  0  0  0  0  0  0  0  0  0
   -0.3765    0.4483   -0.1767 N   0  0  0  0  0  0  0  0  0  0  0  0
    0.9755    0.1166    0.1378 C   0  0  0  0  0  0  0  0  0  0  0  0
    1.5687    0.5462    1.3166 C   0  0  0  0  0  0  0  0  0  0  0  0
    2.8807    0.2294    1.6201 C   0  0  0  0  0  0  0  0  0  0  0  0
    3.6537   -0.5267    0.7635 C   0  0  0  0  0  0  0  0  0  0  0  0
    5.3256   -0.9200    1.1690 Cl  0  0  0  0  0  0  0  0  0  0  0  0
    3.0734   -0.9562   -0.4066 C   0  0  0  0  0  0  0  0  0  0  0  0
    1.7637   -0.6341   -0.6990 C   0  0  0  0  0  0  0  0  0  0  0  0
  1  2  1  0
  2  3  1  0
  2  4  1  0
  4  5  1  1
  4  6  1  0
  6  7  2  0
  7  8  1  0
  7  9  1  0
  9 10  2  0
 10 11  1  0
 10 12  1  0
 12 13  1  0
 13 14  2  0
 14 15  1  0
 15 16  2  0
 16 17  1  0
 16 18  1  0
 18 19  2  0
 12  4  1  0
 19 13  1  0
M  END
>  <zinc_id>  (769) 
ZINC000013559303

>  <ortholog_name>  (769) 
DRTS_PLAFK

>  <gene_name>  (769) 
DRTS_PLAFK

>  <affinity>  (769) 
7.44

>  <chembldocid>  (769) 
17662

>  <title>  (769) 
None

>  <reference.pubmed_id>  (769) 
14736247

>  <reference.doi>  (769) 
None

>  <reference.chembl_id>  (769) 
CHEMBL1138835

>  <reference.journal>  (769) 
J. Med. Chem.

>  <reference.year>  (769) 
2004

$$$$

     RDKit          3D

 19 20  0  0  0  0  0  0  0  0999 V2000
   -2.6345   -2.5768    0.1875 C   0  0  0  0  0  0  0  0  0  0  0  0
   -1.3974   -1.7964   -0.2763 C   0  0  0  0  0  0  0  0  0  0  0  0
   -0.1712   -2.5195    0.2765 C   0  0  0  0  0  0  0  0  0  0  0  0
   -1.4692   -0.3661    0.2196 C   0  0  2  0  0  0  0  0  0  0  0  0
   -1.5199   -0.3507    1.7531 C   0  0  0  0  0  0  0  0  0  0  0  0
   -2.7303    0.1725   -0.2210 N   0  0  0  0  0  0  0  0  0  0  0  0
   -2.8849    1.2494   -0.8838 C   0  0  0  0  0  0  0  0  0  0  0  0
   -4.1707    1.7321   -1.2928 N   0  0  0  0  0  0  0  0  0  0  0  0
   -1.7726    2.0543   -1.2681 N   0  0  0  0  0  0  0  0  0  0  0  0
   -0.6221    1.6440   -0.9171 C   0  0  0  0  0  0  0  0  0  0  0  0
    0.5082    2.4535   -1.3023 N   0  0  0  0  0  0  0  0  0  0  0  0
   -0.3765    0.4483   -0.1767 N   0  0  0  0  0  0  0  0  0  0  0  0
    0.9755    0.1166    0.1378 C   0  0  0  0  0  0  0  0  0  0  0  0
    1.5687    0.5462    1.3166 C   0  0  0  0  0  0  0  0  0  0  0  0
    2.8807    0.2294    1.6201 C   0  0  0  0  0  0  0  0  0  0  0  0
    3.6537   -0.5267    0.7635 C   0  0  0  0  0  0  0  0  0  0  0  0
    5.3256   -0.9200    1.1690 Cl  0  0  0  0  0  0  0  0  0  0  0  0
    3.0734   -0.9562   -0.4066 C   0  0  0  0  0  0  0  0  0  0  0  0
    1.7637   -0.6341   -0.6990 C   0  0  0  0  0  0  0  0  0  0  0  0
  1  2  1  0
  2  3  1  0
  2  4  1  0
  4  5  1  1
  4  6  1  0
  6  7  2  0
  7  8  1  0
  7  9  1  0
  9 10  2  0
 10 11  1  0
 10 12  1  0
 12 13  1  0
 13 14  2  0
 14 15  1  0
 15 16  2  0
 16 17  1  0
 16 18  1  0
 18 19  2  0
 12  4  1  0
 19 13  1  0
M  END
>  <zinc_id>  (770) 
ZINC000013559303

>  <ortholog_name>  (770) 
DRTS_PLAFK

>  <gene_name>  (770) 
DRTS_PLAFK

>  <affinity>  (770) 
5.34

>  <chembldocid>  (770) 
17662

>  <title>  (770) 
None

>  <reference.pubmed_id>  (770) 
14736247

>  <reference.doi>  (770) 
None

>  <reference.chembl_id>  (770) 
CHEMBL1138835

>  <reference.journal>  (770) 
J. Med. Chem.

>  <reference.year>  (770) 
2004

$$$$

     RDKit          3D

 19 20  0  0  0  0  0  0  0  0999 V2000
   -2.0567    3.2678    0.3647 C   0  0  0  0  0  0  0  0  0  0  0  0
   -2.1556    2.5061   -0.9391 C   0  0  0  0  0  0  0  0  0  0  0  0
   -1.0824    1.4520   -0.9426 C   0  0  0  0  0  0  0  0  0  0  0  0
   -1.2587    0.4823    0.2287 C   0  0  1  0  0  0  0  0  0  0  0  0
   -1.1752    1.2875    1.5064 C   0  0  0  0  0  0  0  0  0  0  0  0
   -2.5547   -0.1063    0.1206 N   0  0  0  0  0  0  0  0  0  0  0  0
   -2.8258   -1.3349   -0.0342 C   0  0  0  0  0  0  0  0  0  0  0  0
   -4.1767   -1.7804   -0.1268 N   0  0  0  0  0  0  0  0  0  0  0  0
   -1.7873   -2.2984   -0.1192 N   0  0  0  0  0  0  0  0  0  0  0  0
   -0.5713   -1.8840   -0.0343 C   0  0  0  0  0  0  0  0  0  0  0  0
    0.4720   -2.8680   -0.1216 N   0  0  0  0  0  0  0  0  0  0  0  0
   -0.2129   -0.5186    0.1394 N   0  0  0  0  0  0  0  0  0  0  0  0
    1.1644   -0.1793    0.2201 C   0  0  0  0  0  0  0  0  0  0  0  0
    1.8224   -0.1491    1.4331 C   0  0  0  0  0  0  0  0  0  0  0  0
    3.1608    0.1776    1.5380 C   0  0  0  0  0  0  0  0  0  0  0  0
    3.9072    0.4913    0.4258 C   0  0  0  0  0  0  0  0  0  0  0  0
    3.2667    0.4659   -0.7901 C   0  0  0  0  0  0  0  0  0  0  0  0
    4.1317    0.8501   -2.2622 Cl  0  0  0  0  0  0  0  0  0  0  0  0
    1.9321    0.1385   -0.8804 C   0  0  0  0  0  0  0  0  0  0  0  0
  1  2  1  0
  2  3  1  0
  3  4  1  0
  4  5  1  1
  4  6  1  0
  6  7  2  0
  7  8  1  0
  7  9  1  0
  9 10  2  0
 10 11  1  0
 10 12  1  0
 12 13  1  0
 13 14  2  0
 14 15  1  0
 15 16  2  0
 16 17  1  0
 17 18  1  0
 17 19  2  0
 12  4  1  0
 19 13  1  0
M  END
>  <zinc_id>  (771) 
ZINC000013559304

>  <ortholog_name>  (771) 
DRTS_PLAFK

>  <gene_name>  (771) 
DRTS_PLAFK

>  <affinity>  (771) 
5.96

>  <chembldocid>  (771) 
17662

>  <title>  (771) 
None

>  <reference.pubmed_id>  (771) 
14736247

>  <reference.doi>  (771) 
None

>  <reference.chembl_id>  (771) 
CHEMBL1138835

>  <reference.journal>  (771) 
J. Med. Chem.

>  <reference.year>  (771) 
2004

$$$$

     RDKit          3D

 19 20  0  0  0  0  0  0  0  0999 V2000
   -2.0567    3.2678    0.3647 C   0  0  0  0  0  0  0  0  0  0  0  0
   -2.1556    2.5061   -0.9391 C   0  0  0  0  0  0  0  0  0  0  0  0
   -1.0824    1.4520   -0.9426 C   0  0  0  0  0  0  0  0  0  0  0  0
   -1.2587    0.4823    0.2287 C   0  0  1  0  0  0  0  0  0  0  0  0
   -1.1752    1.2875    1.5064 C   0  0  0  0  0  0  0  0  0  0  0  0
   -2.5547   -0.1063    0.1206 N   0  0  0  0  0  0  0  0  0  0  0  0
   -2.8258   -1.3349   -0.0342 C   0  0  0  0  0  0  0  0  0  0  0  0
   -4.1767   -1.7804   -0.1268 N   0  0  0  0  0  0  0  0  0  0  0  0
   -1.7873   -2.2984   -0.1192 N   0  0  0  0  0  0  0  0  0  0  0  0
   -0.5713   -1.8840   -0.0343 C   0  0  0  0  0  0  0  0  0  0  0  0
    0.4720   -2.8680   -0.1216 N   0  0  0  0  0  0  0  0  0  0  0  0
   -0.2129   -0.5186    0.1394 N   0  0  0  0  0  0  0  0  0  0  0  0
    1.1644   -0.1793    0.2201 C   0  0  0  0  0  0  0  0  0  0  0  0
    1.8224   -0.1491    1.4331 C   0  0  0  0  0  0  0  0  0  0  0  0
    3.1608    0.1776    1.5380 C   0  0  0  0  0  0  0  0  0  0  0  0
    3.9072    0.4913    0.4258 C   0  0  0  0  0  0  0  0  0  0  0  0
    3.2667    0.4659   -0.7901 C   0  0  0  0  0  0  0  0  0  0  0  0
    4.1317    0.8501   -2.2622 Cl  0  0  0  0  0  0  0  0  0  0  0  0
    1.9321    0.1385   -0.8804 C   0  0  0  0  0  0  0  0  0  0  0  0
  1  2  1  0
  2  3  1  0
  3  4  1  0
  4  5  1  1
  4  6  1  0
  6  7  2  0
  7  8  1  0
  7  9  1  0
  9 10  2  0
 10 11  1  0
 10 12  1  0
 12 13  1  0
 13 14  2  0
 14 15  1  0
 15 16  2  0
 16 17  1  0
 17 18  1  0
 17 19  2  0
 12  4  1  0
 19 13  1  0
M  END
>  <zinc_id>  (772) 
ZINC000013559304

>  <ortholog_name>  (772) 
DRTS_PLAFK

>  <gene_name>  (772) 
DRTS_PLAFK

>  <affinity>  (772) 
6.74

>  <chembldocid>  (772) 
17662

>  <title>  (772) 
None

>  <reference.pubmed_id>  (772) 
14736247

>  <reference.doi>  (772) 
None

>  <reference.chembl_id>  (772) 
CHEMBL1138835

>  <reference.journal>  (772) 
J. Med. Chem.

>  <reference.year>  (772) 
2004

$$$$

     RDKit          3D

 19 20  0  0  0  0  0  0  0  0999 V2000
   -2.0567    3.2678    0.3647 C   0  0  0  0  0  0  0  0  0  0  0  0
   -2.1556    2.5061   -0.9391 C   0  0  0  0  0  0  0  0  0  0  0  0
   -1.0824    1.4520   -0.9426 C   0  0  0  0  0  0  0  0  0  0  0  0
   -1.2587    0.4823    0.2287 C   0  0  1  0  0  0  0  0  0  0  0  0
   -1.1752    1.2875    1.5064 C   0  0  0  0  0  0  0  0  0  0  0  0
   -2.5547   -0.1063    0.1206 N   0  0  0  0  0  0  0  0  0  0  0  0
   -2.8258   -1.3349   -0.0342 C   0  0  0  0  0  0  0  0  0  0  0  0
   -4.1767   -1.7804   -0.1268 N   0  0  0  0  0  0  0  0  0  0  0  0
   -1.7873   -2.2984   -0.1192 N   0  0  0  0  0  0  0  0  0  0  0  0
   -0.5713   -1.8840   -0.0343 C   0  0  0  0  0  0  0  0  0  0  0  0
    0.4720   -2.8680   -0.1216 N   0  0  0  0  0  0  0  0  0  0  0  0
   -0.2129   -0.5186    0.1394 N   0  0  0  0  0  0  0  0  0  0  0  0
    1.1644   -0.1793    0.2201 C   0  0  0  0  0  0  0  0  0  0  0  0
    1.8224   -0.1491    1.4331 C   0  0  0  0  0  0  0  0  0  0  0  0
    3.1608    0.1776    1.5380 C   0  0  0  0  0  0  0  0  0  0  0  0
    3.9072    0.4913    0.4258 C   0  0  0  0  0  0  0  0  0  0  0  0
    3.2667    0.4659   -0.7901 C   0  0  0  0  0  0  0  0  0  0  0  0
    4.1317    0.8501   -2.2622 Cl  0  0  0  0  0  0  0  0  0  0  0  0
    1.9321    0.1385   -0.8804 C   0  0  0  0  0  0  0  0  0  0  0  0
  1  2  1  0
  2  3  1  0
  3  4  1  0
  4  5  1  1
  4  6  1  0
  6  7  2  0
  7  8  1  0
  7  9  1  0
  9 10  2  0
 10 11  1  0
 10 12  1  0
 12 13  1  0
 13 14  2  0
 14 15  1  0
 15 16  2  0
 16 17  1  0
 17 18  1  0
 17 19  2  0
 12  4  1  0
 19 13  1  0
M  END
>  <zinc_id>  (773) 
ZINC000013559304

>  <ortholog_name>  (773) 
DRTS_PLAFK

>  <gene_name>  (773) 
DRTS_PLAFK

>  <affinity>  (773) 
6.55

>  <chembldocid>  (773) 
17662

>  <title>  (773) 
None

>  <reference.pubmed_id>  (773) 
14736247

>  <reference.doi>  (773) 
None

>  <reference.chembl_id>  (773) 
CHEMBL1138835

>  <reference.journal>  (773) 
J. Med. Chem.

>  <reference.year>  (773) 
2004

$$$$

     RDKit          3D

 19 20  0  0  0  0  0  0  0  0999 V2000
   -2.0567    3.2678    0.3647 C   0  0  0  0  0  0  0  0  0  0  0  0
   -2.1556    2.5061   -0.9391 C   0  0  0  0  0  0  0  0  0  0  0  0
   -1.0824    1.4520   -0.9426 C   0  0  0  0  0  0  0  0  0  0  0  0
   -1.2587    0.4823    0.2287 C   0  0  1  0  0  0  0  0  0  0  0  0
   -1.1752    1.2875    1.5064 C   0  0  0  0  0  0  0  0  0  0  0  0
   -2.5547   -0.1063    0.1206 N   0  0  0  0  0  0  0  0  0  0  0  0
   -2.8258   -1.3349   -0.0342 C   0  0  0  0  0  0  0  0  0  0  0  0
   -4.1767   -1.7804   -0.1268 N   0  0  0  0  0  0  0  0  0  0  0  0
   -1.7873   -2.2984   -0.1192 N   0  0  0  0  0  0  0  0  0  0  0  0
   -0.5713   -1.8840   -0.0343 C   0  0  0  0  0  0  0  0  0  0  0  0
    0.4720   -2.8680   -0.1216 N   0  0  0  0  0  0  0  0  0  0  0  0
   -0.2129   -0.5186    0.1394 N   0  0  0  0  0  0  0  0  0  0  0  0
    1.1644   -0.1793    0.2201 C   0  0  0  0  0  0  0  0  0  0  0  0
    1.8224   -0.1491    1.4331 C   0  0  0  0  0  0  0  0  0  0  0  0
    3.1608    0.1776    1.5380 C   0  0  0  0  0  0  0  0  0  0  0  0
    3.9072    0.4913    0.4258 C   0  0  0  0  0  0  0  0  0  0  0  0
    3.2667    0.4659   -0.7901 C   0  0  0  0  0  0  0  0  0  0  0  0
    4.1317    0.8501   -2.2622 Cl  0  0  0  0  0  0  0  0  0  0  0  0
    1.9321    0.1385   -0.8804 C   0  0  0  0  0  0  0  0  0  0  0  0
  1  2  1  0
  2  3  1  0
  3  4  1  0
  4  5  1  1
  4  6  1  0
  6  7  2  0
  7  8  1  0
  7  9  1  0
  9 10  2  0
 10 11  1  0
 10 12  1  0
 12 13  1  0
 13 14  2  0
 14 15  1  0
 15 16  2  0
 16 17  1  0
 17 18  1  0
 17 19  2  0
 12  4  1  0
 19 13  1  0
M  END
>  <zinc_id>  (774) 
ZINC000013559304

>  <ortholog_name>  (774) 
DRTS_PLAFK

>  <gene_name>  (774) 
DRTS_PLAFK

>  <affinity>  (774) 
6.54

>  <chembldocid>  (774) 
17662

>  <title>  (774) 
None

>  <reference.pubmed_id>  (774) 
14736247

>  <reference.doi>  (774) 
None

>  <reference.chembl_id>  (774) 
CHEMBL1138835

>  <reference.journal>  (774) 
J. Med. Chem.

>  <reference.year>  (774) 
2004

$$$$

     RDKit          3D

 19 20  0  0  0  0  0  0  0  0999 V2000
   -2.0567    3.2678    0.3647 C   0  0  0  0  0  0  0  0  0  0  0  0
   -2.1556    2.5061   -0.9391 C   0  0  0  0  0  0  0  0  0  0  0  0
   -1.0824    1.4520   -0.9426 C   0  0  0  0  0  0  0  0  0  0  0  0
   -1.2587    0.4823    0.2287 C   0  0  1  0  0  0  0  0  0  0  0  0
   -1.1752    1.2875    1.5064 C   0  0  0  0  0  0  0  0  0  0  0  0
   -2.5547   -0.1063    0.1206 N   0  0  0  0  0  0  0  0  0  0  0  0
   -2.8258   -1.3349   -0.0342 C   0  0  0  0  0  0  0  0  0  0  0  0
   -4.1767   -1.7804   -0.1268 N   0  0  0  0  0  0  0  0  0  0  0  0
   -1.7873   -2.2984   -0.1192 N   0  0  0  0  0  0  0  0  0  0  0  0
   -0.5713   -1.8840   -0.0343 C   0  0  0  0  0  0  0  0  0  0  0  0
    0.4720   -2.8680   -0.1216 N   0  0  0  0  0  0  0  0  0  0  0  0
   -0.2129   -0.5186    0.1394 N   0  0  0  0  0  0  0  0  0  0  0  0
    1.1644   -0.1793    0.2201 C   0  0  0  0  0  0  0  0  0  0  0  0
    1.8224   -0.1491    1.4331 C   0  0  0  0  0  0  0  0  0  0  0  0
    3.1608    0.1776    1.5380 C   0  0  0  0  0  0  0  0  0  0  0  0
    3.9072    0.4913    0.4258 C   0  0  0  0  0  0  0  0  0  0  0  0
    3.2667    0.4659   -0.7901 C   0  0  0  0  0  0  0  0  0  0  0  0
    4.1317    0.8501   -2.2622 Cl  0  0  0  0  0  0  0  0  0  0  0  0
    1.9321    0.1385   -0.8804 C   0  0  0  0  0  0  0  0  0  0  0  0
  1  2  1  0
  2  3  1  0
  3  4  1  0
  4  5  1  1
  4  6  1  0
  6  7  2  0
  7  8  1  0
  7  9  1  0
  9 10  2  0
 10 11  1  0
 10 12  1  0
 12 13  1  0
 13 14  2  0
 14 15  1  0
 15 16  2  0
 16 17  1  0
 17 18  1  0
 17 19  2  0
 12  4  1  0
 19 13  1  0
M  END
>  <zinc_id>  (775) 
ZINC000013559304

>  <ortholog_name>  (775) 
DRTS_PLAFK

>  <gene_name>  (775) 
DRTS_PLAFK

>  <affinity>  (775) 
7.48

>  <chembldocid>  (775) 
17662

>  <title>  (775) 
None

>  <reference.pubmed_id>  (775) 
14736247

>  <reference.doi>  (775) 
None

>  <reference.chembl_id>  (775) 
CHEMBL1138835

>  <reference.journal>  (775) 
J. Med. Chem.

>  <reference.year>  (775) 
2004

$$$$

     RDKit          3D

 19 20  0  0  0  0  0  0  0  0999 V2000
   -2.0567    3.2678    0.3647 C   0  0  0  0  0  0  0  0  0  0  0  0
   -2.1556    2.5061   -0.9391 C   0  0  0  0  0  0  0  0  0  0  0  0
   -1.0824    1.4520   -0.9426 C   0  0  0  0  0  0  0  0  0  0  0  0
   -1.2587    0.4823    0.2287 C   0  0  1  0  0  0  0  0  0  0  0  0
   -1.1752    1.2875    1.5064 C   0  0  0  0  0  0  0  0  0  0  0  0
   -2.5547   -0.1063    0.1206 N   0  0  0  0  0  0  0  0  0  0  0  0
   -2.8258   -1.3349   -0.0342 C   0  0  0  0  0  0  0  0  0  0  0  0
   -4.1767   -1.7804   -0.1268 N   0  0  0  0  0  0  0  0  0  0  0  0
   -1.7873   -2.2984   -0.1192 N   0  0  0  0  0  0  0  0  0  0  0  0
   -0.5713   -1.8840   -0.0343 C   0  0  0  0  0  0  0  0  0  0  0  0
    0.4720   -2.8680   -0.1216 N   0  0  0  0  0  0  0  0  0  0  0  0
   -0.2129   -0.5186    0.1394 N   0  0  0  0  0  0  0  0  0  0  0  0
    1.1644   -0.1793    0.2201 C   0  0  0  0  0  0  0  0  0  0  0  0
    1.8224   -0.1491    1.4331 C   0  0  0  0  0  0  0  0  0  0  0  0
    3.1608    0.1776    1.5380 C   0  0  0  0  0  0  0  0  0  0  0  0
    3.9072    0.4913    0.4258 C   0  0  0  0  0  0  0  0  0  0  0  0
    3.2667    0.4659   -0.7901 C   0  0  0  0  0  0  0  0  0  0  0  0
    4.1317    0.8501   -2.2622 Cl  0  0  0  0  0  0  0  0  0  0  0  0
    1.9321    0.1385   -0.8804 C   0  0  0  0  0  0  0  0  0  0  0  0
  1  2  1  0
  2  3  1  0
  3  4  1  0
  4  5  1  1
  4  6  1  0
  6  7  2  0
  7  8  1  0
  7  9  1  0
  9 10  2  0
 10 11  1  0
 10 12  1  0
 12 13  1  0
 13 14  2  0
 14 15  1  0
 15 16  2  0
 16 17  1  0
 17 18  1  0
 17 19  2  0
 12  4  1  0
 19 13  1  0
M  END
>  <zinc_id>  (776) 
ZINC000013559304

>  <ortholog_name>  (776) 
DRTS_PLAFK

>  <gene_name>  (776) 
DRTS_PLAFK

>  <affinity>  (776) 
7.40

>  <chembldocid>  (776) 
17662

>  <title>  (776) 
None

>  <reference.pubmed_id>  (776) 
14736247

>  <reference.doi>  (776) 
None

>  <reference.chembl_id>  (776) 
CHEMBL1138835

>  <reference.journal>  (776) 
J. Med. Chem.

>  <reference.year>  (776) 
2004

$$$$

     RDKit          3D

 19 20  0  0  0  0  0  0  0  0999 V2000
   -2.0567    3.2678    0.3647 C   0  0  0  0  0  0  0  0  0  0  0  0
   -2.1556    2.5061   -0.9391 C   0  0  0  0  0  0  0  0  0  0  0  0
   -1.0824    1.4520   -0.9426 C   0  0  0  0  0  0  0  0  0  0  0  0
   -1.2587    0.4823    0.2287 C   0  0  1  0  0  0  0  0  0  0  0  0
   -1.1752    1.2875    1.5064 C   0  0  0  0  0  0  0  0  0  0  0  0
   -2.5547   -0.1063    0.1206 N   0  0  0  0  0  0  0  0  0  0  0  0
   -2.8258   -1.3349   -0.0342 C   0  0  0  0  0  0  0  0  0  0  0  0
   -4.1767   -1.7804   -0.1268 N   0  0  0  0  0  0  0  0  0  0  0  0
   -1.7873   -2.2984   -0.1192 N   0  0  0  0  0  0  0  0  0  0  0  0
   -0.5713   -1.8840   -0.0343 C   0  0  0  0  0  0  0  0  0  0  0  0
    0.4720   -2.8680   -0.1216 N   0  0  0  0  0  0  0  0  0  0  0  0
   -0.2129   -0.5186    0.1394 N   0  0  0  0  0  0  0  0  0  0  0  0
    1.1644   -0.1793    0.2201 C   0  0  0  0  0  0  0  0  0  0  0  0
    1.8224   -0.1491    1.4331 C   0  0  0  0  0  0  0  0  0  0  0  0
    3.1608    0.1776    1.5380 C   0  0  0  0  0  0  0  0  0  0  0  0
    3.9072    0.4913    0.4258 C   0  0  0  0  0  0  0  0  0  0  0  0
    3.2667    0.4659   -0.7901 C   0  0  0  0  0  0  0  0  0  0  0  0
    4.1317    0.8501   -2.2622 Cl  0  0  0  0  0  0  0  0  0  0  0  0
    1.9321    0.1385   -0.8804 C   0  0  0  0  0  0  0  0  0  0  0  0
  1  2  1  0
  2  3  1  0
  3  4  1  0
  4  5  1  1
  4  6  1  0
  6  7  2  0
  7  8  1  0
  7  9  1  0
  9 10  2  0
 10 11  1  0
 10 12  1  0
 12 13  1  0
 13 14  2  0
 14 15  1  0
 15 16  2  0
 16 17  1  0
 17 18  1  0
 17 19  2  0
 12  4  1  0
 19 13  1  0
M  END
>  <zinc_id>  (777) 
ZINC000013559304

>  <ortholog_name>  (777) 
DRTS_PLAFK

>  <gene_name>  (777) 
DRTS_PLAFK

>  <affinity>  (777) 
8.34

>  <chembldocid>  (777) 
17662

>  <title>  (777) 
None

>  <reference.pubmed_id>  (777) 
14736247

>  <reference.doi>  (777) 
None

>  <reference.chembl_id>  (777) 
CHEMBL1138835

>  <reference.journal>  (777) 
J. Med. Chem.

>  <reference.year>  (777) 
2004

$$$$

     RDKit          3D

 19 20  0  0  0  0  0  0  0  0999 V2000
   -2.0567    3.2678    0.3647 C   0  0  0  0  0  0  0  0  0  0  0  0
   -2.1556    2.5061   -0.9391 C   0  0  0  0  0  0  0  0  0  0  0  0
   -1.0824    1.4520   -0.9426 C   0  0  0  0  0  0  0  0  0  0  0  0
   -1.2587    0.4823    0.2287 C   0  0  1  0  0  0  0  0  0  0  0  0
   -1.1752    1.2875    1.5064 C   0  0  0  0  0  0  0  0  0  0  0  0
   -2.5547   -0.1063    0.1206 N   0  0  0  0  0  0  0  0  0  0  0  0
   -2.8258   -1.3349   -0.0342 C   0  0  0  0  0  0  0  0  0  0  0  0
   -4.1767   -1.7804   -0.1268 N   0  0  0  0  0  0  0  0  0  0  0  0
   -1.7873   -2.2984   -0.1192 N   0  0  0  0  0  0  0  0  0  0  0  0
   -0.5713   -1.8840   -0.0343 C   0  0  0  0  0  0  0  0  0  0  0  0
    0.4720   -2.8680   -0.1216 N   0  0  0  0  0  0  0  0  0  0  0  0
   -0.2129   -0.5186    0.1394 N   0  0  0  0  0  0  0  0  0  0  0  0
    1.1644   -0.1793    0.2201 C   0  0  0  0  0  0  0  0  0  0  0  0
    1.8224   -0.1491    1.4331 C   0  0  0  0  0  0  0  0  0  0  0  0
    3.1608    0.1776    1.5380 C   0  0  0  0  0  0  0  0  0  0  0  0
    3.9072    0.4913    0.4258 C   0  0  0  0  0  0  0  0  0  0  0  0
    3.2667    0.4659   -0.7901 C   0  0  0  0  0  0  0  0  0  0  0  0
    4.1317    0.8501   -2.2622 Cl  0  0  0  0  0  0  0  0  0  0  0  0
    1.9321    0.1385   -0.8804 C   0  0  0  0  0  0  0  0  0  0  0  0
  1  2  1  0
  2  3  1  0
  3  4  1  0
  4  5  1  1
  4  6  1  0
  6  7  2  0
  7  8  1  0
  7  9  1  0
  9 10  2  0
 10 11  1  0
 10 12  1  0
 12 13  1  0
 13 14  2  0
 14 15  1  0
 15 16  2  0
 16 17  1  0
 17 18  1  0
 17 19  2  0
 12  4  1  0
 19 13  1  0
M  END
>  <zinc_id>  (778) 
ZINC000013559304

>  <ortholog_name>  (778) 
DRTS_PLAFK

>  <gene_name>  (778) 
DRTS_PLAFK

>  <affinity>  (778) 
6.33

>  <chembldocid>  (778) 
17662

>  <title>  (778) 
None

>  <reference.pubmed_id>  (778) 
14736247

>  <reference.doi>  (778) 
None

>  <reference.chembl_id>  (778) 
CHEMBL1138835

>  <reference.journal>  (778) 
J. Med. Chem.

>  <reference.year>  (778) 
2004

$$$$

     RDKit          3D

 19 20  0  0  0  0  0  0  0  0999 V2000
   -2.0567    3.2678    0.3647 C   0  0  0  0  0  0  0  0  0  0  0  0
   -2.1556    2.5061   -0.9391 C   0  0  0  0  0  0  0  0  0  0  0  0
   -1.0824    1.4520   -0.9426 C   0  0  0  0  0  0  0  0  0  0  0  0
   -1.2587    0.4823    0.2287 C   0  0  1  0  0  0  0  0  0  0  0  0
   -1.1752    1.2875    1.5064 C   0  0  0  0  0  0  0  0  0  0  0  0
   -2.5547   -0.1063    0.1206 N   0  0  0  0  0  0  0  0  0  0  0  0
   -2.8258   -1.3349   -0.0342 C   0  0  0  0  0  0  0  0  0  0  0  0
   -4.1767   -1.7804   -0.1268 N   0  0  0  0  0  0  0  0  0  0  0  0
   -1.7873   -2.2984   -0.1192 N   0  0  0  0  0  0  0  0  0  0  0  0
   -0.5713   -1.8840   -0.0343 C   0  0  0  0  0  0  0  0  0  0  0  0
    0.4720   -2.8680   -0.1216 N   0  0  0  0  0  0  0  0  0  0  0  0
   -0.2129   -0.5186    0.1394 N   0  0  0  0  0  0  0  0  0  0  0  0
    1.1644   -0.1793    0.2201 C   0  0  0  0  0  0  0  0  0  0  0  0
    1.8224   -0.1491    1.4331 C   0  0  0  0  0  0  0  0  0  0  0  0
    3.1608    0.1776    1.5380 C   0  0  0  0  0  0  0  0  0  0  0  0
    3.9072    0.4913    0.4258 C   0  0  0  0  0  0  0  0  0  0  0  0
    3.2667    0.4659   -0.7901 C   0  0  0  0  0  0  0  0  0  0  0  0
    4.1317    0.8501   -2.2622 Cl  0  0  0  0  0  0  0  0  0  0  0  0
    1.9321    0.1385   -0.8804 C   0  0  0  0  0  0  0  0  0  0  0  0
  1  2  1  0
  2  3  1  0
  3  4  1  0
  4  5  1  1
  4  6  1  0
  6  7  2  0
  7  8  1  0
  7  9  1  0
  9 10  2  0
 10 11  1  0
 10 12  1  0
 12 13  1  0
 13 14  2  0
 14 15  1  0
 15 16  2  0
 16 17  1  0
 17 18  1  0
 17 19  2  0
 12  4  1  0
 19 13  1  0
M  END
>  <zinc_id>  (779) 
ZINC000013559304

>  <ortholog_name>  (779) 
DRTS_PLAFK

>  <gene_name>  (779) 
DRTS_PLAFK

>  <affinity>  (779) 
8.01

>  <chembldocid>  (779) 
17662

>  <title>  (779) 
None

>  <reference.pubmed_id>  (779) 
14736247

>  <reference.doi>  (779) 
None

>  <reference.chembl_id>  (779) 
CHEMBL1138835

>  <reference.journal>  (779) 
J. Med. Chem.

>  <reference.year>  (779) 
2004

$$$$

     RDKit          3D

 19 20  0  0  0  0  0  0  0  0999 V2000
   -2.5239   -1.5077    2.4457 C   0  0  0  0  0  0  0  0  0  0  0  0
   -2.7709   -1.8945    1.0055 C   0  0  0  0  0  0  0  0  0  0  0  0
   -1.5515   -1.5453    0.1891 C   0  0  0  0  0  0  0  0  0  0  0  0
   -1.2797   -0.0387    0.2762 C   0  0  2  0  0  0  0  0  0  0  0  0
   -1.0484    0.2882    1.7522 C   0  0  0  0  0  0  0  0  0  0  0  0
   -2.4595    0.6345   -0.2023 N   0  0  0  0  0  0  0  0  0  0  0  0
   -2.4849    1.4472   -1.1749 C   0  0  0  0  0  0  0  0  0  0  0  0
   -3.7298    2.0595   -1.5618 N   0  0  0  0  0  0  0  0  0  0  0  0
   -1.3288    1.7767   -1.8985 N   0  0  0  0  0  0  0  0  0  0  0  0
   -0.2117    1.2243   -1.5478 C   0  0  0  0  0  0  0  0  0  0  0  0
    0.9564    1.5610   -2.2834 N   0  0  0  0  0  0  0  0  0  0  0  0
   -0.1102    0.3132   -0.4783 N   0  0  0  0  0  0  0  0  0  0  0  0
    1.1364   -0.2577   -0.1420 C   0  0  0  0  0  0  0  0  0  0  0  0
    1.5631   -1.4517   -0.7179 C   0  0  0  0  0  0  0  0  0  0  0  0
    2.7771   -2.0032   -0.3873 C   0  0  0  0  0  0  0  0  0  0  0  0
    3.6017   -1.3733    0.5324 C   0  0  0  0  0  0  0  0  0  0  0  0
    3.2172   -0.1872    1.1276 C   0  0  0  0  0  0  0  0  0  0  0  0
    4.2516    0.6236    2.2956 Cl  0  0  0  0  0  0  0  0  0  0  0  0
    1.9958    0.3313    0.7698 C   0  0  0  0  0  0  0  0  0  0  0  0
  1  2  1  0
  2  3  1  0
  3  4  1  0
  4  5  1  1
  4  6  1  0
  6  7  2  0
  7  8  1  0
  7  9  1  0
  9 10  2  0
 10 11  1  0
 10 12  1  0
 12 13  1  0
 13 14  2  0
 14 15  1  0
 15 16  2  0
 16 17  1  0
 17 18  1  0
 17 19  2  0
 12  4  1  0
 19 13  1  0
M  END
>  <zinc_id>  (780) 
ZINC000013559305

>  <ortholog_name>  (780) 
DRTS_PLAFK

>  <gene_name>  (780) 
DRTS_PLAFK

>  <affinity>  (780) 
5.96

>  <chembldocid>  (780) 
17662

>  <title>  (780) 
None

>  <reference.pubmed_id>  (780) 
14736247

>  <reference.doi>  (780) 
None

>  <reference.chembl_id>  (780) 
CHEMBL1138835

>  <reference.journal>  (780) 
J. Med. Chem.

>  <reference.year>  (780) 
2004

$$$$

     RDKit          3D

 19 20  0  0  0  0  0  0  0  0999 V2000
   -2.5239   -1.5077    2.4457 C   0  0  0  0  0  0  0  0  0  0  0  0
   -2.7709   -1.8945    1.0055 C   0  0  0  0  0  0  0  0  0  0  0  0
   -1.5515   -1.5453    0.1891 C   0  0  0  0  0  0  0  0  0  0  0  0
   -1.2797   -0.0387    0.2762 C   0  0  2  0  0  0  0  0  0  0  0  0
   -1.0484    0.2882    1.7522 C   0  0  0  0  0  0  0  0  0  0  0  0
   -2.4595    0.6345   -0.2023 N   0  0  0  0  0  0  0  0  0  0  0  0
   -2.4849    1.4472   -1.1749 C   0  0  0  0  0  0  0  0  0  0  0  0
   -3.7298    2.0595   -1.5618 N   0  0  0  0  0  0  0  0  0  0  0  0
   -1.3288    1.7767   -1.8985 N   0  0  0  0  0  0  0  0  0  0  0  0
   -0.2117    1.2243   -1.5478 C   0  0  0  0  0  0  0  0  0  0  0  0
    0.9564    1.5610   -2.2834 N   0  0  0  0  0  0  0  0  0  0  0  0
   -0.1102    0.3132   -0.4783 N   0  0  0  0  0  0  0  0  0  0  0  0
    1.1364   -0.2577   -0.1420 C   0  0  0  0  0  0  0  0  0  0  0  0
    1.5631   -1.4517   -0.7179 C   0  0  0  0  0  0  0  0  0  0  0  0
    2.7771   -2.0032   -0.3873 C   0  0  0  0  0  0  0  0  0  0  0  0
    3.6017   -1.3733    0.5324 C   0  0  0  0  0  0  0  0  0  0  0  0
    3.2172   -0.1872    1.1276 C   0  0  0  0  0  0  0  0  0  0  0  0
    4.2516    0.6236    2.2956 Cl  0  0  0  0  0  0  0  0  0  0  0  0
    1.9958    0.3313    0.7698 C   0  0  0  0  0  0  0  0  0  0  0  0
  1  2  1  0
  2  3  1  0
  3  4  1  0
  4  5  1  1
  4  6  1  0
  6  7  2  0
  7  8  1  0
  7  9  1  0
  9 10  2  0
 10 11  1  0
 10 12  1  0
 12 13  1  0
 13 14  2  0
 14 15  1  0
 15 16  2  0
 16 17  1  0
 17 18  1  0
 17 19  2  0
 12  4  1  0
 19 13  1  0
M  END
>  <zinc_id>  (781) 
ZINC000013559305

>  <ortholog_name>  (781) 
DRTS_PLAFK

>  <gene_name>  (781) 
DRTS_PLAFK

>  <affinity>  (781) 
6.74

>  <chembldocid>  (781) 
17662

>  <title>  (781) 
None

>  <reference.pubmed_id>  (781) 
14736247

>  <reference.doi>  (781) 
None

>  <reference.chembl_id>  (781) 
CHEMBL1138835

>  <reference.journal>  (781) 
J. Med. Chem.

>  <reference.year>  (781) 
2004

$$$$

     RDKit          3D

 19 20  0  0  0  0  0  0  0  0999 V2000
   -2.5239   -1.5077    2.4457 C   0  0  0  0  0  0  0  0  0  0  0  0
   -2.7709   -1.8945    1.0055 C   0  0  0  0  0  0  0  0  0  0  0  0
   -1.5515   -1.5453    0.1891 C   0  0  0  0  0  0  0  0  0  0  0  0
   -1.2797   -0.0387    0.2762 C   0  0  2  0  0  0  0  0  0  0  0  0
   -1.0484    0.2882    1.7522 C   0  0  0  0  0  0  0  0  0  0  0  0
   -2.4595    0.6345   -0.2023 N   0  0  0  0  0  0  0  0  0  0  0  0
   -2.4849    1.4472   -1.1749 C   0  0  0  0  0  0  0  0  0  0  0  0
   -3.7298    2.0595   -1.5618 N   0  0  0  0  0  0  0  0  0  0  0  0
   -1.3288    1.7767   -1.8985 N   0  0  0  0  0  0  0  0  0  0  0  0
   -0.2117    1.2243   -1.5478 C   0  0  0  0  0  0  0  0  0  0  0  0
    0.9564    1.5610   -2.2834 N   0  0  0  0  0  0  0  0  0  0  0  0
   -0.1102    0.3132   -0.4783 N   0  0  0  0  0  0  0  0  0  0  0  0
    1.1364   -0.2577   -0.1420 C   0  0  0  0  0  0  0  0  0  0  0  0
    1.5631   -1.4517   -0.7179 C   0  0  0  0  0  0  0  0  0  0  0  0
    2.7771   -2.0032   -0.3873 C   0  0  0  0  0  0  0  0  0  0  0  0
    3.6017   -1.3733    0.5324 C   0  0  0  0  0  0  0  0  0  0  0  0
    3.2172   -0.1872    1.1276 C   0  0  0  0  0  0  0  0  0  0  0  0
    4.2516    0.6236    2.2956 Cl  0  0  0  0  0  0  0  0  0  0  0  0
    1.9958    0.3313    0.7698 C   0  0  0  0  0  0  0  0  0  0  0  0
  1  2  1  0
  2  3  1  0
  3  4  1  0
  4  5  1  1
  4  6  1  0
  6  7  2  0
  7  8  1  0
  7  9  1  0
  9 10  2  0
 10 11  1  0
 10 12  1  0
 12 13  1  0
 13 14  2  0
 14 15  1  0
 15 16  2  0
 16 17  1  0
 17 18  1  0
 17 19  2  0
 12  4  1  0
 19 13  1  0
M  END
>  <zinc_id>  (782) 
ZINC000013559305

>  <ortholog_name>  (782) 
DRTS_PLAFK

>  <gene_name>  (782) 
DRTS_PLAFK

>  <affinity>  (782) 
6.55

>  <chembldocid>  (782) 
17662

>  <title>  (782) 
None

>  <reference.pubmed_id>  (782) 
14736247

>  <reference.doi>  (782) 
None

>  <reference.chembl_id>  (782) 
CHEMBL1138835

>  <reference.journal>  (782) 
J. Med. Chem.

>  <reference.year>  (782) 
2004

$$$$

     RDKit          3D

 19 20  0  0  0  0  0  0  0  0999 V2000
   -2.5239   -1.5077    2.4457 C   0  0  0  0  0  0  0  0  0  0  0  0
   -2.7709   -1.8945    1.0055 C   0  0  0  0  0  0  0  0  0  0  0  0
   -1.5515   -1.5453    0.1891 C   0  0  0  0  0  0  0  0  0  0  0  0
   -1.2797   -0.0387    0.2762 C   0  0  2  0  0  0  0  0  0  0  0  0
   -1.0484    0.2882    1.7522 C   0  0  0  0  0  0  0  0  0  0  0  0
   -2.4595    0.6345   -0.2023 N   0  0  0  0  0  0  0  0  0  0  0  0
   -2.4849    1.4472   -1.1749 C   0  0  0  0  0  0  0  0  0  0  0  0
   -3.7298    2.0595   -1.5618 N   0  0  0  0  0  0  0  0  0  0  0  0
   -1.3288    1.7767   -1.8985 N   0  0  0  0  0  0  0  0  0  0  0  0
   -0.2117    1.2243   -1.5478 C   0  0  0  0  0  0  0  0  0  0  0  0
    0.9564    1.5610   -2.2834 N   0  0  0  0  0  0  0  0  0  0  0  0
   -0.1102    0.3132   -0.4783 N   0  0  0  0  0  0  0  0  0  0  0  0
    1.1364   -0.2577   -0.1420 C   0  0  0  0  0  0  0  0  0  0  0  0
    1.5631   -1.4517   -0.7179 C   0  0  0  0  0  0  0  0  0  0  0  0
    2.7771   -2.0032   -0.3873 C   0  0  0  0  0  0  0  0  0  0  0  0
    3.6017   -1.3733    0.5324 C   0  0  0  0  0  0  0  0  0  0  0  0
    3.2172   -0.1872    1.1276 C   0  0  0  0  0  0  0  0  0  0  0  0
    4.2516    0.6236    2.2956 Cl  0  0  0  0  0  0  0  0  0  0  0  0
    1.9958    0.3313    0.7698 C   0  0  0  0  0  0  0  0  0  0  0  0
  1  2  1  0
  2  3  1  0
  3  4  1  0
  4  5  1  1
  4  6  1  0
  6  7  2  0
  7  8  1  0
  7  9  1  0
  9 10  2  0
 10 11  1  0
 10 12  1  0
 12 13  1  0
 13 14  2  0
 14 15  1  0
 15 16  2  0
 16 17  1  0
 17 18  1  0
 17 19  2  0
 12  4  1  0
 19 13  1  0
M  END
>  <zinc_id>  (783) 
ZINC000013559305

>  <ortholog_name>  (783) 
DRTS_PLAFK

>  <gene_name>  (783) 
DRTS_PLAFK

>  <affinity>  (783) 
6.54

>  <chembldocid>  (783) 
17662

>  <title>  (783) 
None

>  <reference.pubmed_id>  (783) 
14736247

>  <reference.doi>  (783) 
None

>  <reference.chembl_id>  (783) 
CHEMBL1138835

>  <reference.journal>  (783) 
J. Med. Chem.

>  <reference.year>  (783) 
2004

$$$$

     RDKit          3D

 19 20  0  0  0  0  0  0  0  0999 V2000
   -2.5239   -1.5077    2.4457 C   0  0  0  0  0  0  0  0  0  0  0  0
   -2.7709   -1.8945    1.0055 C   0  0  0  0  0  0  0  0  0  0  0  0
   -1.5515   -1.5453    0.1891 C   0  0  0  0  0  0  0  0  0  0  0  0
   -1.2797   -0.0387    0.2762 C   0  0  2  0  0  0  0  0  0  0  0  0
   -1.0484    0.2882    1.7522 C   0  0  0  0  0  0  0  0  0  0  0  0
   -2.4595    0.6345   -0.2023 N   0  0  0  0  0  0  0  0  0  0  0  0
   -2.4849    1.4472   -1.1749 C   0  0  0  0  0  0  0  0  0  0  0  0
   -3.7298    2.0595   -1.5618 N   0  0  0  0  0  0  0  0  0  0  0  0
   -1.3288    1.7767   -1.8985 N   0  0  0  0  0  0  0  0  0  0  0  0
   -0.2117    1.2243   -1.5478 C   0  0  0  0  0  0  0  0  0  0  0  0
    0.9564    1.5610   -2.2834 N   0  0  0  0  0  0  0  0  0  0  0  0
   -0.1102    0.3132   -0.4783 N   0  0  0  0  0  0  0  0  0  0  0  0
    1.1364   -0.2577   -0.1420 C   0  0  0  0  0  0  0  0  0  0  0  0
    1.5631   -1.4517   -0.7179 C   0  0  0  0  0  0  0  0  0  0  0  0
    2.7771   -2.0032   -0.3873 C   0  0  0  0  0  0  0  0  0  0  0  0
    3.6017   -1.3733    0.5324 C   0  0  0  0  0  0  0  0  0  0  0  0
    3.2172   -0.1872    1.1276 C   0  0  0  0  0  0  0  0  0  0  0  0
    4.2516    0.6236    2.2956 Cl  0  0  0  0  0  0  0  0  0  0  0  0
    1.9958    0.3313    0.7698 C   0  0  0  0  0  0  0  0  0  0  0  0
  1  2  1  0
  2  3  1  0
  3  4  1  0
  4  5  1  1
  4  6  1  0
  6  7  2  0
  7  8  1  0
  7  9  1  0
  9 10  2  0
 10 11  1  0
 10 12  1  0
 12 13  1  0
 13 14  2  0
 14 15  1  0
 15 16  2  0
 16 17  1  0
 17 18  1  0
 17 19  2  0
 12  4  1  0
 19 13  1  0
M  END
>  <zinc_id>  (784) 
ZINC000013559305

>  <ortholog_name>  (784) 
DRTS_PLAFK

>  <gene_name>  (784) 
DRTS_PLAFK

>  <affinity>  (784) 
7.48

>  <chembldocid>  (784) 
17662

>  <title>  (784) 
None

>  <reference.pubmed_id>  (784) 
14736247

>  <reference.doi>  (784) 
None

>  <reference.chembl_id>  (784) 
CHEMBL1138835

>  <reference.journal>  (784) 
J. Med. Chem.

>  <reference.year>  (784) 
2004

$$$$

     RDKit          3D

 19 20  0  0  0  0  0  0  0  0999 V2000
   -2.5239   -1.5077    2.4457 C   0  0  0  0  0  0  0  0  0  0  0  0
   -2.7709   -1.8945    1.0055 C   0  0  0  0  0  0  0  0  0  0  0  0
   -1.5515   -1.5453    0.1891 C   0  0  0  0  0  0  0  0  0  0  0  0
   -1.2797   -0.0387    0.2762 C   0  0  2  0  0  0  0  0  0  0  0  0
   -1.0484    0.2882    1.7522 C   0  0  0  0  0  0  0  0  0  0  0  0
   -2.4595    0.6345   -0.2023 N   0  0  0  0  0  0  0  0  0  0  0  0
   -2.4849    1.4472   -1.1749 C   0  0  0  0  0  0  0  0  0  0  0  0
   -3.7298    2.0595   -1.5618 N   0  0  0  0  0  0  0  0  0  0  0  0
   -1.3288    1.7767   -1.8985 N   0  0  0  0  0  0  0  0  0  0  0  0
   -0.2117    1.2243   -1.5478 C   0  0  0  0  0  0  0  0  0  0  0  0
    0.9564    1.5610   -2.2834 N   0  0  0  0  0  0  0  0  0  0  0  0
   -0.1102    0.3132   -0.4783 N   0  0  0  0  0  0  0  0  0  0  0  0
    1.1364   -0.2577   -0.1420 C   0  0  0  0  0  0  0  0  0  0  0  0
    1.5631   -1.4517   -0.7179 C   0  0  0  0  0  0  0  0  0  0  0  0
    2.7771   -2.0032   -0.3873 C   0  0  0  0  0  0  0  0  0  0  0  0
    3.6017   -1.3733    0.5324 C   0  0  0  0  0  0  0  0  0  0  0  0
    3.2172   -0.1872    1.1276 C   0  0  0  0  0  0  0  0  0  0  0  0
    4.2516    0.6236    2.2956 Cl  0  0  0  0  0  0  0  0  0  0  0  0
    1.9958    0.3313    0.7698 C   0  0  0  0  0  0  0  0  0  0  0  0
  1  2  1  0
  2  3  1  0
  3  4  1  0
  4  5  1  1
  4  6  1  0
  6  7  2  0
  7  8  1  0
  7  9  1  0
  9 10  2  0
 10 11  1  0
 10 12  1  0
 12 13  1  0
 13 14  2  0
 14 15  1  0
 15 16  2  0
 16 17  1  0
 17 18  1  0
 17 19  2  0
 12  4  1  0
 19 13  1  0
M  END
>  <zinc_id>  (785) 
ZINC000013559305

>  <ortholog_name>  (785) 
DRTS_PLAFK

>  <gene_name>  (785) 
DRTS_PLAFK

>  <affinity>  (785) 
7.40

>  <chembldocid>  (785) 
17662

>  <title>  (785) 
None

>  <reference.pubmed_id>  (785) 
14736247

>  <reference.doi>  (785) 
None

>  <reference.chembl_id>  (785) 
CHEMBL1138835

>  <reference.journal>  (785) 
J. Med. Chem.

>  <reference.year>  (785) 
2004

$$$$

     RDKit          3D

 19 20  0  0  0  0  0  0  0  0999 V2000
   -2.5239   -1.5077    2.4457 C   0  0  0  0  0  0  0  0  0  0  0  0
   -2.7709   -1.8945    1.0055 C   0  0  0  0  0  0  0  0  0  0  0  0
   -1.5515   -1.5453    0.1891 C   0  0  0  0  0  0  0  0  0  0  0  0
   -1.2797   -0.0387    0.2762 C   0  0  2  0  0  0  0  0  0  0  0  0
   -1.0484    0.2882    1.7522 C   0  0  0  0  0  0  0  0  0  0  0  0
   -2.4595    0.6345   -0.2023 N   0  0  0  0  0  0  0  0  0  0  0  0
   -2.4849    1.4472   -1.1749 C   0  0  0  0  0  0  0  0  0  0  0  0
   -3.7298    2.0595   -1.5618 N   0  0  0  0  0  0  0  0  0  0  0  0
   -1.3288    1.7767   -1.8985 N   0  0  0  0  0  0  0  0  0  0  0  0
   -0.2117    1.2243   -1.5478 C   0  0  0  0  0  0  0  0  0  0  0  0
    0.9564    1.5610   -2.2834 N   0  0  0  0  0  0  0  0  0  0  0  0
   -0.1102    0.3132   -0.4783 N   0  0  0  0  0  0  0  0  0  0  0  0
    1.1364   -0.2577   -0.1420 C   0  0  0  0  0  0  0  0  0  0  0  0
    1.5631   -1.4517   -0.7179 C   0  0  0  0  0  0  0  0  0  0  0  0
    2.7771   -2.0032   -0.3873 C   0  0  0  0  0  0  0  0  0  0  0  0
    3.6017   -1.3733    0.5324 C   0  0  0  0  0  0  0  0  0  0  0  0
    3.2172   -0.1872    1.1276 C   0  0  0  0  0  0  0  0  0  0  0  0
    4.2516    0.6236    2.2956 Cl  0  0  0  0  0  0  0  0  0  0  0  0
    1.9958    0.3313    0.7698 C   0  0  0  0  0  0  0  0  0  0  0  0
  1  2  1  0
  2  3  1  0
  3  4  1  0
  4  5  1  1
  4  6  1  0
  6  7  2  0
  7  8  1  0
  7  9  1  0
  9 10  2  0
 10 11  1  0
 10 12  1  0
 12 13  1  0
 13 14  2  0
 14 15  1  0
 15 16  2  0
 16 17  1  0
 17 18  1  0
 17 19  2  0
 12  4  1  0
 19 13  1  0
M  END
>  <zinc_id>  (786) 
ZINC000013559305

>  <ortholog_name>  (786) 
DRTS_PLAFK

>  <gene_name>  (786) 
DRTS_PLAFK

>  <affinity>  (786) 
8.34

>  <chembldocid>  (786) 
17662

>  <title>  (786) 
None

>  <reference.pubmed_id>  (786) 
14736247

>  <reference.doi>  (786) 
None

>  <reference.chembl_id>  (786) 
CHEMBL1138835

>  <reference.journal>  (786) 
J. Med. Chem.

>  <reference.year>  (786) 
2004

$$$$

     RDKit          3D

 19 20  0  0  0  0  0  0  0  0999 V2000
   -2.5239   -1.5077    2.4457 C   0  0  0  0  0  0  0  0  0  0  0  0
   -2.7709   -1.8945    1.0055 C   0  0  0  0  0  0  0  0  0  0  0  0
   -1.5515   -1.5453    0.1891 C   0  0  0  0  0  0  0  0  0  0  0  0
   -1.2797   -0.0387    0.2762 C   0  0  2  0  0  0  0  0  0  0  0  0
   -1.0484    0.2882    1.7522 C   0  0  0  0  0  0  0  0  0  0  0  0
   -2.4595    0.6345   -0.2023 N   0  0  0  0  0  0  0  0  0  0  0  0
   -2.4849    1.4472   -1.1749 C   0  0  0  0  0  0  0  0  0  0  0  0
   -3.7298    2.0595   -1.5618 N   0  0  0  0  0  0  0  0  0  0  0  0
   -1.3288    1.7767   -1.8985 N   0  0  0  0  0  0  0  0  0  0  0  0
   -0.2117    1.2243   -1.5478 C   0  0  0  0  0  0  0  0  0  0  0  0
    0.9564    1.5610   -2.2834 N   0  0  0  0  0  0  0  0  0  0  0  0
   -0.1102    0.3132   -0.4783 N   0  0  0  0  0  0  0  0  0  0  0  0
    1.1364   -0.2577   -0.1420 C   0  0  0  0  0  0  0  0  0  0  0  0
    1.5631   -1.4517   -0.7179 C   0  0  0  0  0  0  0  0  0  0  0  0
    2.7771   -2.0032   -0.3873 C   0  0  0  0  0  0  0  0  0  0  0  0
    3.6017   -1.3733    0.5324 C   0  0  0  0  0  0  0  0  0  0  0  0
    3.2172   -0.1872    1.1276 C   0  0  0  0  0  0  0  0  0  0  0  0
    4.2516    0.6236    2.2956 Cl  0  0  0  0  0  0  0  0  0  0  0  0
    1.9958    0.3313    0.7698 C   0  0  0  0  0  0  0  0  0  0  0  0
  1  2  1  0
  2  3  1  0
  3  4  1  0
  4  5  1  1
  4  6  1  0
  6  7  2  0
  7  8  1  0
  7  9  1  0
  9 10  2  0
 10 11  1  0
 10 12  1  0
 12 13  1  0
 13 14  2  0
 14 15  1  0
 15 16  2  0
 16 17  1  0
 17 18  1  0
 17 19  2  0
 12  4  1  0
 19 13  1  0
M  END
>  <zinc_id>  (787) 
ZINC000013559305

>  <ortholog_name>  (787) 
DRTS_PLAFK

>  <gene_name>  (787) 
DRTS_PLAFK

>  <affinity>  (787) 
6.33

>  <chembldocid>  (787) 
17662

>  <title>  (787) 
None

>  <reference.pubmed_id>  (787) 
14736247

>  <reference.doi>  (787) 
None

>  <reference.chembl_id>  (787) 
CHEMBL1138835

>  <reference.journal>  (787) 
J. Med. Chem.

>  <reference.year>  (787) 
2004

$$$$

     RDKit          3D

 19 20  0  0  0  0  0  0  0  0999 V2000
   -2.5239   -1.5077    2.4457 C   0  0  0  0  0  0  0  0  0  0  0  0
   -2.7709   -1.8945    1.0055 C   0  0  0  0  0  0  0  0  0  0  0  0
   -1.5515   -1.5453    0.1891 C   0  0  0  0  0  0  0  0  0  0  0  0
   -1.2797   -0.0387    0.2762 C   0  0  2  0  0  0  0  0  0  0  0  0
   -1.0484    0.2882    1.7522 C   0  0  0  0  0  0  0  0  0  0  0  0
   -2.4595    0.6345   -0.2023 N   0  0  0  0  0  0  0  0  0  0  0  0
   -2.4849    1.4472   -1.1749 C   0  0  0  0  0  0  0  0  0  0  0  0
   -3.7298    2.0595   -1.5618 N   0  0  0  0  0  0  0  0  0  0  0  0
   -1.3288    1.7767   -1.8985 N   0  0  0  0  0  0  0  0  0  0  0  0
   -0.2117    1.2243   -1.5478 C   0  0  0  0  0  0  0  0  0  0  0  0
    0.9564    1.5610   -2.2834 N   0  0  0  0  0  0  0  0  0  0  0  0
   -0.1102    0.3132   -0.4783 N   0  0  0  0  0  0  0  0  0  0  0  0
    1.1364   -0.2577   -0.1420 C   0  0  0  0  0  0  0  0  0  0  0  0
    1.5631   -1.4517   -0.7179 C   0  0  0  0  0  0  0  0  0  0  0  0
    2.7771   -2.0032   -0.3873 C   0  0  0  0  0  0  0  0  0  0  0  0
    3.6017   -1.3733    0.5324 C   0  0  0  0  0  0  0  0  0  0  0  0
    3.2172   -0.1872    1.1276 C   0  0  0  0  0  0  0  0  0  0  0  0
    4.2516    0.6236    2.2956 Cl  0  0  0  0  0  0  0  0  0  0  0  0
    1.9958    0.3313    0.7698 C   0  0  0  0  0  0  0  0  0  0  0  0
  1  2  1  0
  2  3  1  0
  3  4  1  0
  4  5  1  1
  4  6  1  0
  6  7  2  0
  7  8  1  0
  7  9  1  0
  9 10  2  0
 10 11  1  0
 10 12  1  0
 12 13  1  0
 13 14  2  0
 14 15  1  0
 15 16  2  0
 16 17  1  0
 17 18  1  0
 17 19  2  0
 12  4  1  0
 19 13  1  0
M  END
>  <zinc_id>  (788) 
ZINC000013559305

>  <ortholog_name>  (788) 
DRTS_PLAFK

>  <gene_name>  (788) 
DRTS_PLAFK

>  <affinity>  (788) 
8.01

>  <chembldocid>  (788) 
17662

>  <title>  (788) 
None

>  <reference.pubmed_id>  (788) 
14736247

>  <reference.doi>  (788) 
None

>  <reference.chembl_id>  (788) 
CHEMBL1138835

>  <reference.journal>  (788) 
J. Med. Chem.

>  <reference.year>  (788) 
2004

$$$$

     RDKit          3D

 22 23  0  0  0  0  0  0  0  0999 V2000
    3.1749   -3.9530    1.9406 C   0  0  0  0  0  0  0  0  0  0  0  0
    2.7654   -3.2516    0.6422 C   0  0  0  0  0  0  0  0  0  0  0  0
    2.6070   -1.7842    0.9763 C   0  0  0  0  0  0  0  0  0  0  0  0
    2.2051   -0.9516   -0.1973 C   0  0  0  0  0  0  0  0  0  0  0  0
    0.8613   -1.4130   -0.7776 C   0  0  0  0  0  0  0  0  0  0  0  0
    0.4742   -0.5613   -1.9592 C   0  0  0  0  0  0  0  0  0  0  0  0
    0.3360    0.8984   -1.5388 C   0  0  1  0  0  0  0  0  0  0  0  0
    1.7082    1.3592   -0.9596 C   0  0  0  0  0  0  0  0  0  0  0  0
    0.1341    1.7422   -2.6675 N   0  0  0  0  0  0  0  0  0  0  0  0
   -0.7907    2.5963   -2.7595 C   0  0  0  0  0  0  0  0  0  0  0  0
   -0.8217    3.3552   -3.9927 N   0  0  0  0  0  0  0  0  0  0  0  0
   -1.7631    2.8302   -1.7488 N   0  0  0  0  0  0  0  0  0  0  0  0
   -1.6418    2.0930   -0.6961 C   0  0  0  0  0  0  0  0  0  0  0  0
   -2.5817    2.2492    0.3985 N   0  0  0  0  0  0  0  0  0  0  0  0
   -0.6394    1.1151   -0.5253 N   0  0  0  0  0  0  0  0  0  0  0  0
   -0.6483    0.3570    0.7007 C   0  0  0  0  0  0  0  0  0  0  0  0
    0.0885    0.8224    1.7628 C   0  0  0  0  0  0  0  0  0  0  0  0
    0.1130    0.1512    2.9724 C   0  0  0  0  0  0  0  0  0  0  0  0
   -0.6017   -1.0097    3.1555 C   0  0  0  0  0  0  0  0  0  0  0  0
   -1.3442   -1.4865    2.0986 C   0  0  0  0  0  0  0  0  0  0  0  0
   -2.2697   -2.9689    2.2999 Cl  0  0  0  0  0  0  0  0  0  0  0  0
   -1.3654   -0.8023    0.8750 C   0  0  0  0  0  0  0  0  0  0  0  0
  1  2  1  0
  2  3  1  0
  3  4  1  0
  4  5  1  0
  5  6  1  0
  6  7  1  0
  7  8  1  1
  7  9  1  0
  9 10  2  0
 10 11  1  0
 10 12  1  0
 12 13  2  0
 13 14  1  0
 13 15  1  0
 15 16  1  0
 16 17  2  0
 17 18  1  0
 18 19  2  0
 19 20  1  0
 20 21  1  0
 20 22  2  0
 15  7  1  0
 22 16  1  0
M  END
>  <zinc_id>  (789) 
ZINC000013559306

>  <ortholog_name>  (789) 
DRTS_PLAFK

>  <gene_name>  (789) 
DRTS_PLAFK

>  <affinity>  (789) 
7.00

>  <chembldocid>  (789) 
17662

>  <title>  (789) 
None

>  <reference.pubmed_id>  (789) 
14736247

>  <reference.doi>  (789) 
None

>  <reference.chembl_id>  (789) 
CHEMBL1138835

>  <reference.journal>  (789) 
J. Med. Chem.

>  <reference.year>  (789) 
2004

$$$$

     RDKit          3D

 22 23  0  0  0  0  0  0  0  0999 V2000
    3.1749   -3.9530    1.9406 C   0  0  0  0  0  0  0  0  0  0  0  0
    2.7654   -3.2516    0.6422 C   0  0  0  0  0  0  0  0  0  0  0  0
    2.6070   -1.7842    0.9763 C   0  0  0  0  0  0  0  0  0  0  0  0
    2.2051   -0.9516   -0.1973 C   0  0  0  0  0  0  0  0  0  0  0  0
    0.8613   -1.4130   -0.7776 C   0  0  0  0  0  0  0  0  0  0  0  0
    0.4742   -0.5613   -1.9592 C   0  0  0  0  0  0  0  0  0  0  0  0
    0.3360    0.8984   -1.5388 C   0  0  1  0  0  0  0  0  0  0  0  0
    1.7082    1.3592   -0.9596 C   0  0  0  0  0  0  0  0  0  0  0  0
    0.1341    1.7422   -2.6675 N   0  0  0  0  0  0  0  0  0  0  0  0
   -0.7907    2.5963   -2.7595 C   0  0  0  0  0  0  0  0  0  0  0  0
   -0.8217    3.3552   -3.9927 N   0  0  0  0  0  0  0  0  0  0  0  0
   -1.7631    2.8302   -1.7488 N   0  0  0  0  0  0  0  0  0  0  0  0
   -1.6418    2.0930   -0.6961 C   0  0  0  0  0  0  0  0  0  0  0  0
   -2.5817    2.2492    0.3985 N   0  0  0  0  0  0  0  0  0  0  0  0
   -0.6394    1.1151   -0.5253 N   0  0  0  0  0  0  0  0  0  0  0  0
   -0.6483    0.3570    0.7007 C   0  0  0  0  0  0  0  0  0  0  0  0
    0.0885    0.8224    1.7628 C   0  0  0  0  0  0  0  0  0  0  0  0
    0.1130    0.1512    2.9724 C   0  0  0  0  0  0  0  0  0  0  0  0
   -0.6017   -1.0097    3.1555 C   0  0  0  0  0  0  0  0  0  0  0  0
   -1.3442   -1.4865    2.0986 C   0  0  0  0  0  0  0  0  0  0  0  0
   -2.2697   -2.9689    2.2999 Cl  0  0  0  0  0  0  0  0  0  0  0  0
   -1.3654   -0.8023    0.8750 C   0  0  0  0  0  0  0  0  0  0  0  0
  1  2  1  0
  2  3  1  0
  3  4  1  0
  4  5  1  0
  5  6  1  0
  6  7  1  0
  7  8  1  1
  7  9  1  0
  9 10  2  0
 10 11  1  0
 10 12  1  0
 12 13  2  0
 13 14  1  0
 13 15  1  0
 15 16  1  0
 16 17  2  0
 17 18  1  0
 18 19  2  0
 19 20  1  0
 20 21  1  0
 20 22  2  0
 15  7  1  0
 22 16  1  0
M  END
>  <zinc_id>  (790) 
ZINC000013559306

>  <ortholog_name>  (790) 
DRTS_PLAFK

>  <gene_name>  (790) 
DRTS_PLAFK

>  <affinity>  (790) 
7.92

>  <chembldocid>  (790) 
17662

>  <title>  (790) 
None

>  <reference.pubmed_id>  (790) 
14736247

>  <reference.doi>  (790) 
None

>  <reference.chembl_id>  (790) 
CHEMBL1138835

>  <reference.journal>  (790) 
J. Med. Chem.

>  <reference.year>  (790) 
2004

$$$$

     RDKit          3D

 22 23  0  0  0  0  0  0  0  0999 V2000
    3.1749   -3.9530    1.9406 C   0  0  0  0  0  0  0  0  0  0  0  0
    2.7654   -3.2516    0.6422 C   0  0  0  0  0  0  0  0  0  0  0  0
    2.6070   -1.7842    0.9763 C   0  0  0  0  0  0  0  0  0  0  0  0
    2.2051   -0.9516   -0.1973 C   0  0  0  0  0  0  0  0  0  0  0  0
    0.8613   -1.4130   -0.7776 C   0  0  0  0  0  0  0  0  0  0  0  0
    0.4742   -0.5613   -1.9592 C   0  0  0  0  0  0  0  0  0  0  0  0
    0.3360    0.8984   -1.5388 C   0  0  1  0  0  0  0  0  0  0  0  0
    1.7082    1.3592   -0.9596 C   0  0  0  0  0  0  0  0  0  0  0  0
    0.1341    1.7422   -2.6675 N   0  0  0  0  0  0  0  0  0  0  0  0
   -0.7907    2.5963   -2.7595 C   0  0  0  0  0  0  0  0  0  0  0  0
   -0.8217    3.3552   -3.9927 N   0  0  0  0  0  0  0  0  0  0  0  0
   -1.7631    2.8302   -1.7488 N   0  0  0  0  0  0  0  0  0  0  0  0
   -1.6418    2.0930   -0.6961 C   0  0  0  0  0  0  0  0  0  0  0  0
   -2.5817    2.2492    0.3985 N   0  0  0  0  0  0  0  0  0  0  0  0
   -0.6394    1.1151   -0.5253 N   0  0  0  0  0  0  0  0  0  0  0  0
   -0.6483    0.3570    0.7007 C   0  0  0  0  0  0  0  0  0  0  0  0
    0.0885    0.8224    1.7628 C   0  0  0  0  0  0  0  0  0  0  0  0
    0.1130    0.1512    2.9724 C   0  0  0  0  0  0  0  0  0  0  0  0
   -0.6017   -1.0097    3.1555 C   0  0  0  0  0  0  0  0  0  0  0  0
   -1.3442   -1.4865    2.0986 C   0  0  0  0  0  0  0  0  0  0  0  0
   -2.2697   -2.9689    2.2999 Cl  0  0  0  0  0  0  0  0  0  0  0  0
   -1.3654   -0.8023    0.8750 C   0  0  0  0  0  0  0  0  0  0  0  0
  1  2  1  0
  2  3  1  0
  3  4  1  0
  4  5  1  0
  5  6  1  0
  6  7  1  0
  7  8  1  1
  7  9  1  0
  9 10  2  0
 10 11  1  0
 10 12  1  0
 12 13  2  0
 13 14  1  0
 13 15  1  0
 15 16  1  0
 16 17  2  0
 17 18  1  0
 18 19  2  0
 19 20  1  0
 20 21  1  0
 20 22  2  0
 15  7  1  0
 22 16  1  0
M  END
>  <zinc_id>  (791) 
ZINC000013559306

>  <ortholog_name>  (791) 
DRTS_PLAFK

>  <gene_name>  (791) 
DRTS_PLAFK

>  <affinity>  (791) 
7.80

>  <chembldocid>  (791) 
17662

>  <title>  (791) 
None

>  <reference.pubmed_id>  (791) 
14736247

>  <reference.doi>  (791) 
None

>  <reference.chembl_id>  (791) 
CHEMBL1138835

>  <reference.journal>  (791) 
J. Med. Chem.

>  <reference.year>  (791) 
2004

$$$$

     RDKit          3D

 22 23  0  0  0  0  0  0  0  0999 V2000
    3.1749   -3.9530    1.9406 C   0  0  0  0  0  0  0  0  0  0  0  0
    2.7654   -3.2516    0.6422 C   0  0  0  0  0  0  0  0  0  0  0  0
    2.6070   -1.7842    0.9763 C   0  0  0  0  0  0  0  0  0  0  0  0
    2.2051   -0.9516   -0.1973 C   0  0  0  0  0  0  0  0  0  0  0  0
    0.8613   -1.4130   -0.7776 C   0  0  0  0  0  0  0  0  0  0  0  0
    0.4742   -0.5613   -1.9592 C   0  0  0  0  0  0  0  0  0  0  0  0
    0.3360    0.8984   -1.5388 C   0  0  1  0  0  0  0  0  0  0  0  0
    1.7082    1.3592   -0.9596 C   0  0  0  0  0  0  0  0  0  0  0  0
    0.1341    1.7422   -2.6675 N   0  0  0  0  0  0  0  0  0  0  0  0
   -0.7907    2.5963   -2.7595 C   0  0  0  0  0  0  0  0  0  0  0  0
   -0.8217    3.3552   -3.9927 N   0  0  0  0  0  0  0  0  0  0  0  0
   -1.7631    2.8302   -1.7488 N   0  0  0  0  0  0  0  0  0  0  0  0
   -1.6418    2.0930   -0.6961 C   0  0  0  0  0  0  0  0  0  0  0  0
   -2.5817    2.2492    0.3985 N   0  0  0  0  0  0  0  0  0  0  0  0
   -0.6394    1.1151   -0.5253 N   0  0  0  0  0  0  0  0  0  0  0  0
   -0.6483    0.3570    0.7007 C   0  0  0  0  0  0  0  0  0  0  0  0
    0.0885    0.8224    1.7628 C   0  0  0  0  0  0  0  0  0  0  0  0
    0.1130    0.1512    2.9724 C   0  0  0  0  0  0  0  0  0  0  0  0
   -0.6017   -1.0097    3.1555 C   0  0  0  0  0  0  0  0  0  0  0  0
   -1.3442   -1.4865    2.0986 C   0  0  0  0  0  0  0  0  0  0  0  0
   -2.2697   -2.9689    2.2999 Cl  0  0  0  0  0  0  0  0  0  0  0  0
   -1.3654   -0.8023    0.8750 C   0  0  0  0  0  0  0  0  0  0  0  0
  1  2  1  0
  2  3  1  0
  3  4  1  0
  4  5  1  0
  5  6  1  0
  6  7  1  0
  7  8  1  1
  7  9  1  0
  9 10  2  0
 10 11  1  0
 10 12  1  0
 12 13  2  0
 13 14  1  0
 13 15  1  0
 15 16  1  0
 16 17  2  0
 17 18  1  0
 18 19  2  0
 19 20  1  0
 20 21  1  0
 20 22  2  0
 15  7  1  0
 22 16  1  0
M  END
>  <zinc_id>  (792) 
ZINC000013559306

>  <ortholog_name>  (792) 
DRTS_PLAFK

>  <gene_name>  (792) 
DRTS_PLAFK

>  <affinity>  (792) 
8.62

>  <chembldocid>  (792) 
17662

>  <title>  (792) 
None

>  <reference.pubmed_id>  (792) 
14736247

>  <reference.doi>  (792) 
None

>  <reference.chembl_id>  (792) 
CHEMBL1138835

>  <reference.journal>  (792) 
J. Med. Chem.

>  <reference.year>  (792) 
2004

$$$$

     RDKit          3D

 22 23  0  0  0  0  0  0  0  0999 V2000
    3.1749   -3.9530    1.9406 C   0  0  0  0  0  0  0  0  0  0  0  0
    2.7654   -3.2516    0.6422 C   0  0  0  0  0  0  0  0  0  0  0  0
    2.6070   -1.7842    0.9763 C   0  0  0  0  0  0  0  0  0  0  0  0
    2.2051   -0.9516   -0.1973 C   0  0  0  0  0  0  0  0  0  0  0  0
    0.8613   -1.4130   -0.7776 C   0  0  0  0  0  0  0  0  0  0  0  0
    0.4742   -0.5613   -1.9592 C   0  0  0  0  0  0  0  0  0  0  0  0
    0.3360    0.8984   -1.5388 C   0  0  1  0  0  0  0  0  0  0  0  0
    1.7082    1.3592   -0.9596 C   0  0  0  0  0  0  0  0  0  0  0  0
    0.1341    1.7422   -2.6675 N   0  0  0  0  0  0  0  0  0  0  0  0
   -0.7907    2.5963   -2.7595 C   0  0  0  0  0  0  0  0  0  0  0  0
   -0.8217    3.3552   -3.9927 N   0  0  0  0  0  0  0  0  0  0  0  0
   -1.7631    2.8302   -1.7488 N   0  0  0  0  0  0  0  0  0  0  0  0
   -1.6418    2.0930   -0.6961 C   0  0  0  0  0  0  0  0  0  0  0  0
   -2.5817    2.2492    0.3985 N   0  0  0  0  0  0  0  0  0  0  0  0
   -0.6394    1.1151   -0.5253 N   0  0  0  0  0  0  0  0  0  0  0  0
   -0.6483    0.3570    0.7007 C   0  0  0  0  0  0  0  0  0  0  0  0
    0.0885    0.8224    1.7628 C   0  0  0  0  0  0  0  0  0  0  0  0
    0.1130    0.1512    2.9724 C   0  0  0  0  0  0  0  0  0  0  0  0
   -0.6017   -1.0097    3.1555 C   0  0  0  0  0  0  0  0  0  0  0  0
   -1.3442   -1.4865    2.0986 C   0  0  0  0  0  0  0  0  0  0  0  0
   -2.2697   -2.9689    2.2999 Cl  0  0  0  0  0  0  0  0  0  0  0  0
   -1.3654   -0.8023    0.8750 C   0  0  0  0  0  0  0  0  0  0  0  0
  1  2  1  0
  2  3  1  0
  3  4  1  0
  4  5  1  0
  5  6  1  0
  6  7  1  0
  7  8  1  1
  7  9  1  0
  9 10  2  0
 10 11  1  0
 10 12  1  0
 12 13  2  0
 13 14  1  0
 13 15  1  0
 15 16  1  0
 16 17  2  0
 17 18  1  0
 18 19  2  0
 19 20  1  0
 20 21  1  0
 20 22  2  0
 15  7  1  0
 22 16  1  0
M  END
>  <zinc_id>  (793) 
ZINC000013559306

>  <ortholog_name>  (793) 
DRTS_PLAFK

>  <gene_name>  (793) 
DRTS_PLAFK

>  <affinity>  (793) 
5.49

>  <chembldocid>  (793) 
17662

>  <title>  (793) 
None

>  <reference.pubmed_id>  (793) 
14736247

>  <reference.doi>  (793) 
None

>  <reference.chembl_id>  (793) 
CHEMBL1138835

>  <reference.journal>  (793) 
J. Med. Chem.

>  <reference.year>  (793) 
2004

$$$$

     RDKit          3D

 22 23  0  0  0  0  0  0  0  0999 V2000
    3.1749   -3.9530    1.9406 C   0  0  0  0  0  0  0  0  0  0  0  0
    2.7654   -3.2516    0.6422 C   0  0  0  0  0  0  0  0  0  0  0  0
    2.6070   -1.7842    0.9763 C   0  0  0  0  0  0  0  0  0  0  0  0
    2.2051   -0.9516   -0.1973 C   0  0  0  0  0  0  0  0  0  0  0  0
    0.8613   -1.4130   -0.7776 C   0  0  0  0  0  0  0  0  0  0  0  0
    0.4742   -0.5613   -1.9592 C   0  0  0  0  0  0  0  0  0  0  0  0
    0.3360    0.8984   -1.5388 C   0  0  1  0  0  0  0  0  0  0  0  0
    1.7082    1.3592   -0.9596 C   0  0  0  0  0  0  0  0  0  0  0  0
    0.1341    1.7422   -2.6675 N   0  0  0  0  0  0  0  0  0  0  0  0
   -0.7907    2.5963   -2.7595 C   0  0  0  0  0  0  0  0  0  0  0  0
   -0.8217    3.3552   -3.9927 N   0  0  0  0  0  0  0  0  0  0  0  0
   -1.7631    2.8302   -1.7488 N   0  0  0  0  0  0  0  0  0  0  0  0
   -1.6418    2.0930   -0.6961 C   0  0  0  0  0  0  0  0  0  0  0  0
   -2.5817    2.2492    0.3985 N   0  0  0  0  0  0  0  0  0  0  0  0
   -0.6394    1.1151   -0.5253 N   0  0  0  0  0  0  0  0  0  0  0  0
   -0.6483    0.3570    0.7007 C   0  0  0  0  0  0  0  0  0  0  0  0
    0.0885    0.8224    1.7628 C   0  0  0  0  0  0  0  0  0  0  0  0
    0.1130    0.1512    2.9724 C   0  0  0  0  0  0  0  0  0  0  0  0
   -0.6017   -1.0097    3.1555 C   0  0  0  0  0  0  0  0  0  0  0  0
   -1.3442   -1.4865    2.0986 C   0  0  0  0  0  0  0  0  0  0  0  0
   -2.2697   -2.9689    2.2999 Cl  0  0  0  0  0  0  0  0  0  0  0  0
   -1.3654   -0.8023    0.8750 C   0  0  0  0  0  0  0  0  0  0  0  0
  1  2  1  0
  2  3  1  0
  3  4  1  0
  4  5  1  0
  5  6  1  0
  6  7  1  0
  7  8  1  1
  7  9  1  0
  9 10  2  0
 10 11  1  0
 10 12  1  0
 12 13  2  0
 13 14  1  0
 13 15  1  0
 15 16  1  0
 16 17  2  0
 17 18  1  0
 18 19  2  0
 19 20  1  0
 20 21  1  0
 20 22  2  0
 15  7  1  0
 22 16  1  0
M  END
>  <zinc_id>  (794) 
ZINC000013559306

>  <ortholog_name>  (794) 
DRTS_PLAFK

>  <gene_name>  (794) 
DRTS_PLAFK

>  <affinity>  (794) 
6.32

>  <chembldocid>  (794) 
17662

>  <title>  (794) 
None

>  <reference.pubmed_id>  (794) 
14736247

>  <reference.doi>  (794) 
None

>  <reference.chembl_id>  (794) 
CHEMBL1138835

>  <reference.journal>  (794) 
J. Med. Chem.

>  <reference.year>  (794) 
2004

$$$$

     RDKit          3D

 22 23  0  0  0  0  0  0  0  0999 V2000
    3.1749   -3.9530    1.9406 C   0  0  0  0  0  0  0  0  0  0  0  0
    2.7654   -3.2516    0.6422 C   0  0  0  0  0  0  0  0  0  0  0  0
    2.6070   -1.7842    0.9763 C   0  0  0  0  0  0  0  0  0  0  0  0
    2.2051   -0.9516   -0.1973 C   0  0  0  0  0  0  0  0  0  0  0  0
    0.8613   -1.4130   -0.7776 C   0  0  0  0  0  0  0  0  0  0  0  0
    0.4742   -0.5613   -1.9592 C   0  0  0  0  0  0  0  0  0  0  0  0
    0.3360    0.8984   -1.5388 C   0  0  1  0  0  0  0  0  0  0  0  0
    1.7082    1.3592   -0.9596 C   0  0  0  0  0  0  0  0  0  0  0  0
    0.1341    1.7422   -2.6675 N   0  0  0  0  0  0  0  0  0  0  0  0
   -0.7907    2.5963   -2.7595 C   0  0  0  0  0  0  0  0  0  0  0  0
   -0.8217    3.3552   -3.9927 N   0  0  0  0  0  0  0  0  0  0  0  0
   -1.7631    2.8302   -1.7488 N   0  0  0  0  0  0  0  0  0  0  0  0
   -1.6418    2.0930   -0.6961 C   0  0  0  0  0  0  0  0  0  0  0  0
   -2.5817    2.2492    0.3985 N   0  0  0  0  0  0  0  0  0  0  0  0
   -0.6394    1.1151   -0.5253 N   0  0  0  0  0  0  0  0  0  0  0  0
   -0.6483    0.3570    0.7007 C   0  0  0  0  0  0  0  0  0  0  0  0
    0.0885    0.8224    1.7628 C   0  0  0  0  0  0  0  0  0  0  0  0
    0.1130    0.1512    2.9724 C   0  0  0  0  0  0  0  0  0  0  0  0
   -0.6017   -1.0097    3.1555 C   0  0  0  0  0  0  0  0  0  0  0  0
   -1.3442   -1.4865    2.0986 C   0  0  0  0  0  0  0  0  0  0  0  0
   -2.2697   -2.9689    2.2999 Cl  0  0  0  0  0  0  0  0  0  0  0  0
   -1.3654   -0.8023    0.8750 C   0  0  0  0  0  0  0  0  0  0  0  0
  1  2  1  0
  2  3  1  0
  3  4  1  0
  4  5  1  0
  5  6  1  0
  6  7  1  0
  7  8  1  1
  7  9  1  0
  9 10  2  0
 10 11  1  0
 10 12  1  0
 12 13  2  0
 13 14  1  0
 13 15  1  0
 15 16  1  0
 16 17  2  0
 17 18  1  0
 18 19  2  0
 19 20  1  0
 20 21  1  0
 20 22  2  0
 15  7  1  0
 22 16  1  0
M  END
>  <zinc_id>  (795) 
ZINC000013559306

>  <ortholog_name>  (795) 
DRTS_PLAFK

>  <gene_name>  (795) 
DRTS_PLAFK

>  <affinity>  (795) 
6.31

>  <chembldocid>  (795) 
17662

>  <title>  (795) 
None

>  <reference.pubmed_id>  (795) 
14736247

>  <reference.doi>  (795) 
None

>  <reference.chembl_id>  (795) 
CHEMBL1138835

>  <reference.journal>  (795) 
J. Med. Chem.

>  <reference.year>  (795) 
2004

$$$$

     RDKit          3D

 22 23  0  0  0  0  0  0  0  0999 V2000
    3.1749   -3.9530    1.9406 C   0  0  0  0  0  0  0  0  0  0  0  0
    2.7654   -3.2516    0.6422 C   0  0  0  0  0  0  0  0  0  0  0  0
    2.6070   -1.7842    0.9763 C   0  0  0  0  0  0  0  0  0  0  0  0
    2.2051   -0.9516   -0.1973 C   0  0  0  0  0  0  0  0  0  0  0  0
    0.8613   -1.4130   -0.7776 C   0  0  0  0  0  0  0  0  0  0  0  0
    0.4742   -0.5613   -1.9592 C   0  0  0  0  0  0  0  0  0  0  0  0
    0.3360    0.8984   -1.5388 C   0  0  1  0  0  0  0  0  0  0  0  0
    1.7082    1.3592   -0.9596 C   0  0  0  0  0  0  0  0  0  0  0  0
    0.1341    1.7422   -2.6675 N   0  0  0  0  0  0  0  0  0  0  0  0
   -0.7907    2.5963   -2.7595 C   0  0  0  0  0  0  0  0  0  0  0  0
   -0.8217    3.3552   -3.9927 N   0  0  0  0  0  0  0  0  0  0  0  0
   -1.7631    2.8302   -1.7488 N   0  0  0  0  0  0  0  0  0  0  0  0
   -1.6418    2.0930   -0.6961 C   0  0  0  0  0  0  0  0  0  0  0  0
   -2.5817    2.2492    0.3985 N   0  0  0  0  0  0  0  0  0  0  0  0
   -0.6394    1.1151   -0.5253 N   0  0  0  0  0  0  0  0  0  0  0  0
   -0.6483    0.3570    0.7007 C   0  0  0  0  0  0  0  0  0  0  0  0
    0.0885    0.8224    1.7628 C   0  0  0  0  0  0  0  0  0  0  0  0
    0.1130    0.1512    2.9724 C   0  0  0  0  0  0  0  0  0  0  0  0
   -0.6017   -1.0097    3.1555 C   0  0  0  0  0  0  0  0  0  0  0  0
   -1.3442   -1.4865    2.0986 C   0  0  0  0  0  0  0  0  0  0  0  0
   -2.2697   -2.9689    2.2999 Cl  0  0  0  0  0  0  0  0  0  0  0  0
   -1.3654   -0.8023    0.8750 C   0  0  0  0  0  0  0  0  0  0  0  0
  1  2  1  0
  2  3  1  0
  3  4  1  0
  4  5  1  0
  5  6  1  0
  6  7  1  0
  7  8  1  1
  7  9  1  0
  9 10  2  0
 10 11  1  0
 10 12  1  0
 12 13  2  0
 13 14  1  0
 13 15  1  0
 15 16  1  0
 16 17  2  0
 17 18  1  0
 18 19  2  0
 19 20  1  0
 20 21  1  0
 20 22  2  0
 15  7  1  0
 22 16  1  0
M  END
>  <zinc_id>  (796) 
ZINC000013559306

>  <ortholog_name>  (796) 
DRTS_PLAFK

>  <gene_name>  (796) 
DRTS_PLAFK

>  <affinity>  (796) 
8.26

>  <chembldocid>  (796) 
17662

>  <title>  (796) 
None

>  <reference.pubmed_id>  (796) 
14736247

>  <reference.doi>  (796) 
None

>  <reference.chembl_id>  (796) 
CHEMBL1138835

>  <reference.journal>  (796) 
J. Med. Chem.

>  <reference.year>  (796) 
2004

$$$$

     RDKit          3D

 22 23  0  0  0  0  0  0  0  0999 V2000
    3.1749   -3.9530    1.9406 C   0  0  0  0  0  0  0  0  0  0  0  0
    2.7654   -3.2516    0.6422 C   0  0  0  0  0  0  0  0  0  0  0  0
    2.6070   -1.7842    0.9763 C   0  0  0  0  0  0  0  0  0  0  0  0
    2.2051   -0.9516   -0.1973 C   0  0  0  0  0  0  0  0  0  0  0  0
    0.8613   -1.4130   -0.7776 C   0  0  0  0  0  0  0  0  0  0  0  0
    0.4742   -0.5613   -1.9592 C   0  0  0  0  0  0  0  0  0  0  0  0
    0.3360    0.8984   -1.5388 C   0  0  1  0  0  0  0  0  0  0  0  0
    1.7082    1.3592   -0.9596 C   0  0  0  0  0  0  0  0  0  0  0  0
    0.1341    1.7422   -2.6675 N   0  0  0  0  0  0  0  0  0  0  0  0
   -0.7907    2.5963   -2.7595 C   0  0  0  0  0  0  0  0  0  0  0  0
   -0.8217    3.3552   -3.9927 N   0  0  0  0  0  0  0  0  0  0  0  0
   -1.7631    2.8302   -1.7488 N   0  0  0  0  0  0  0  0  0  0  0  0
   -1.6418    2.0930   -0.6961 C   0  0  0  0  0  0  0  0  0  0  0  0
   -2.5817    2.2492    0.3985 N   0  0  0  0  0  0  0  0  0  0  0  0
   -0.6394    1.1151   -0.5253 N   0  0  0  0  0  0  0  0  0  0  0  0
   -0.6483    0.3570    0.7007 C   0  0  0  0  0  0  0  0  0  0  0  0
    0.0885    0.8224    1.7628 C   0  0  0  0  0  0  0  0  0  0  0  0
    0.1130    0.1512    2.9724 C   0  0  0  0  0  0  0  0  0  0  0  0
   -0.6017   -1.0097    3.1555 C   0  0  0  0  0  0  0  0  0  0  0  0
   -1.3442   -1.4865    2.0986 C   0  0  0  0  0  0  0  0  0  0  0  0
   -2.2697   -2.9689    2.2999 Cl  0  0  0  0  0  0  0  0  0  0  0  0
   -1.3654   -0.8023    0.8750 C   0  0  0  0  0  0  0  0  0  0  0  0
  1  2  1  0
  2  3  1  0
  3  4  1  0
  4  5  1  0
  5  6  1  0
  6  7  1  0
  7  8  1  1
  7  9  1  0
  9 10  2  0
 10 11  1  0
 10 12  1  0
 12 13  2  0
 13 14  1  0
 13 15  1  0
 15 16  1  0
 16 17  2  0
 17 18  1  0
 18 19  2  0
 19 20  1  0
 20 21  1  0
 20 22  2  0
 15  7  1  0
 22 16  1  0
M  END
>  <zinc_id>  (797) 
ZINC000013559306

>  <ortholog_name>  (797) 
DRTS_PLAFK

>  <gene_name>  (797) 
DRTS_PLAFK

>  <affinity>  (797) 
6.29

>  <chembldocid>  (797) 
17662

>  <title>  (797) 
None

>  <reference.pubmed_id>  (797) 
14736247

>  <reference.doi>  (797) 
None

>  <reference.chembl_id>  (797) 
CHEMBL1138835

>  <reference.journal>  (797) 
J. Med. Chem.

>  <reference.year>  (797) 
2004

$$$$

     RDKit          3D

 22 23  0  0  0  0  0  0  0  0999 V2000
    3.1749   -3.9530    1.9406 C   0  0  0  0  0  0  0  0  0  0  0  0
    2.7654   -3.2516    0.6422 C   0  0  0  0  0  0  0  0  0  0  0  0
    2.6070   -1.7842    0.9763 C   0  0  0  0  0  0  0  0  0  0  0  0
    2.2051   -0.9516   -0.1973 C   0  0  0  0  0  0  0  0  0  0  0  0
    0.8613   -1.4130   -0.7776 C   0  0  0  0  0  0  0  0  0  0  0  0
    0.4742   -0.5613   -1.9592 C   0  0  0  0  0  0  0  0  0  0  0  0
    0.3360    0.8984   -1.5388 C   0  0  1  0  0  0  0  0  0  0  0  0
    1.7082    1.3592   -0.9596 C   0  0  0  0  0  0  0  0  0  0  0  0
    0.1341    1.7422   -2.6675 N   0  0  0  0  0  0  0  0  0  0  0  0
   -0.7907    2.5963   -2.7595 C   0  0  0  0  0  0  0  0  0  0  0  0
   -0.8217    3.3552   -3.9927 N   0  0  0  0  0  0  0  0  0  0  0  0
   -1.7631    2.8302   -1.7488 N   0  0  0  0  0  0  0  0  0  0  0  0
   -1.6418    2.0930   -0.6961 C   0  0  0  0  0  0  0  0  0  0  0  0
   -2.5817    2.2492    0.3985 N   0  0  0  0  0  0  0  0  0  0  0  0
   -0.6394    1.1151   -0.5253 N   0  0  0  0  0  0  0  0  0  0  0  0
   -0.6483    0.3570    0.7007 C   0  0  0  0  0  0  0  0  0  0  0  0
    0.0885    0.8224    1.7628 C   0  0  0  0  0  0  0  0  0  0  0  0
    0.1130    0.1512    2.9724 C   0  0  0  0  0  0  0  0  0  0  0  0
   -0.6017   -1.0097    3.1555 C   0  0  0  0  0  0  0  0  0  0  0  0
   -1.3442   -1.4865    2.0986 C   0  0  0  0  0  0  0  0  0  0  0  0
   -2.2697   -2.9689    2.2999 Cl  0  0  0  0  0  0  0  0  0  0  0  0
   -1.3654   -0.8023    0.8750 C   0  0  0  0  0  0  0  0  0  0  0  0
  1  2  1  0
  2  3  1  0
  3  4  1  0
  4  5  1  0
  5  6  1  0
  6  7  1  0
  7  8  1  1
  7  9  1  0
  9 10  2  0
 10 11  1  0
 10 12  1  0
 12 13  2  0
 13 14  1  0
 13 15  1  0
 15 16  1  0
 16 17  2  0
 17 18  1  0
 18 19  2  0
 19 20  1  0
 20 21  1  0
 20 22  2  0
 15  7  1  0
 22 16  1  0
M  END
>  <zinc_id>  (798) 
ZINC000013559306

>  <ortholog_name>  (798) 
DRTS_PLAFK

>  <gene_name>  (798) 
DRTS_PLAFK

>  <affinity>  (798) 
7.22

>  <chembldocid>  (798) 
17662

>  <title>  (798) 
None

>  <reference.pubmed_id>  (798) 
14736247

>  <reference.doi>  (798) 
None

>  <reference.chembl_id>  (798) 
CHEMBL1138835

>  <reference.journal>  (798) 
J. Med. Chem.

>  <reference.year>  (798) 
2004

$$$$

     RDKit          3D

 22 23  0  0  0  0  0  0  0  0999 V2000
    3.2579   -1.4824   -1.5437 C   0  0  0  0  0  0  0  0  0  0  0  0
    2.3354   -0.3295   -1.8517 C   0  0  0  0  0  0  0  0  0  0  0  0
    2.8559    0.9432   -1.2061 C   0  0  0  0  0  0  0  0  0  0  0  0
    2.0109    2.1204   -1.4586 C   0  0  0  0  0  0  0  0  0  0  0  0
    0.6314    2.1580   -1.0397 C   0  0  0  0  0  0  0  0  0  0  0  0
    0.1356    2.0667    0.2842 C   0  0  0  0  0  0  0  0  0  0  0  0
    0.3092    0.9364    1.2020 C   0  0  2  0  0  0  0  0  0  0  0  0
   -0.4540    1.3689    2.5049 C   0  0  0  0  0  0  0  0  0  0  0  0
    1.6756    0.7197    1.5903 N   0  0  0  0  0  0  0  0  0  0  0  0
    2.2484   -0.4164    1.7134 C   0  0  0  0  0  0  0  0  0  0  0  0
    3.6170   -0.4259    2.1187 N   0  0  0  0  0  0  0  0  0  0  0  0
    1.6139   -1.6488    1.4017 N   0  0  0  0  0  0  0  0  0  0  0  0
    0.3946   -1.5239    0.9692 C   0  0  0  0  0  0  0  0  0  0  0  0
   -0.3656   -2.7080    0.6205 N   0  0  0  0  0  0  0  0  0  0  0  0
   -0.2719   -0.3038    0.7599 N   0  0  0  0  0  0  0  0  0  0  0  0
   -1.5578   -0.2761    0.0932 C   0  0  0  0  0  0  0  0  0  0  0  0
   -2.7371   -0.3796    0.8050 C   0  0  0  0  0  0  0  0  0  0  0  0
   -3.9714   -0.3600    0.2370 C   0  0  0  0  0  0  0  0  0  0  0  0
   -4.0656   -0.2292   -1.1324 C   0  0  0  0  0  0  0  0  0  0  0  0
   -2.9073   -0.1238   -1.8705 C   0  0  0  0  0  0  0  0  0  0  0  0
   -3.0916    0.0406   -3.6108 Cl  0  0  0  0  0  0  0  0  0  0  0  0
   -1.6634   -0.1462   -1.2706 C   0  0  0  0  0  0  0  0  0  0  0  0
  1  2  1  0
  2  3  1  0
  3  4  1  0
  4  5  1  0
  5  6  1  0
  6  7  1  0
  7  8  1  1
  7  9  1  0
  9 10  2  0
 10 11  1  0
 10 12  1  0
 12 13  2  0
 13 14  1  0
 13 15  1  0
 15 16  1  0
 16 17  2  0
 17 18  1  0
 18 19  2  0
 19 20  1  0
 20 21  1  0
 20 22  2  0
 15  7  1  0
 22 16  1  0
M  END
>  <zinc_id>  (799) 
ZINC000013559307

>  <ortholog_name>  (799) 
DRTS_PLAFK

>  <gene_name>  (799) 
DRTS_PLAFK

>  <affinity>  (799) 
7.00

>  <chembldocid>  (799) 
17662

>  <title>  (799) 
None

>  <reference.pubmed_id>  (799) 
14736247

>  <reference.doi>  (799) 
None

>  <reference.chembl_id>  (799) 
CHEMBL1138835

>  <reference.journal>  (799) 
J. Med. Chem.

>  <reference.year>  (799) 
2004

$$$$

     RDKit          3D

 22 23  0  0  0  0  0  0  0  0999 V2000
    3.2579   -1.4824   -1.5437 C   0  0  0  0  0  0  0  0  0  0  0  0
    2.3354   -0.3295   -1.8517 C   0  0  0  0  0  0  0  0  0  0  0  0
    2.8559    0.9432   -1.2061 C   0  0  0  0  0  0  0  0  0  0  0  0
    2.0109    2.1204   -1.4586 C   0  0  0  0  0  0  0  0  0  0  0  0
    0.6314    2.1580   -1.0397 C   0  0  0  0  0  0  0  0  0  0  0  0
    0.1356    2.0667    0.2842 C   0  0  0  0  0  0  0  0  0  0  0  0
    0.3092    0.9364    1.2020 C   0  0  2  0  0  0  0  0  0  0  0  0
   -0.4540    1.3689    2.5049 C   0  0  0  0  0  0  0  0  0  0  0  0
    1.6756    0.7197    1.5903 N   0  0  0  0  0  0  0  0  0  0  0  0
    2.2484   -0.4164    1.7134 C   0  0  0  0  0  0  0  0  0  0  0  0
    3.6170   -0.4259    2.1187 N   0  0  0  0  0  0  0  0  0  0  0  0
    1.6139   -1.6488    1.4017 N   0  0  0  0  0  0  0  0  0  0  0  0
    0.3946   -1.5239    0.9692 C   0  0  0  0  0  0  0  0  0  0  0  0
   -0.3656   -2.7080    0.6205 N   0  0  0  0  0  0  0  0  0  0  0  0
   -0.2719   -0.3038    0.7599 N   0  0  0  0  0  0  0  0  0  0  0  0
   -1.5578   -0.2761    0.0932 C   0  0  0  0  0  0  0  0  0  0  0  0
   -2.7371   -0.3796    0.8050 C   0  0  0  0  0  0  0  0  0  0  0  0
   -3.9714   -0.3600    0.2370 C   0  0  0  0  0  0  0  0  0  0  0  0
   -4.0656   -0.2292   -1.1324 C   0  0  0  0  0  0  0  0  0  0  0  0
   -2.9073   -0.1238   -1.8705 C   0  0  0  0  0  0  0  0  0  0  0  0
   -3.0916    0.0406   -3.6108 Cl  0  0  0  0  0  0  0  0  0  0  0  0
   -1.6634   -0.1462   -1.2706 C   0  0  0  0  0  0  0  0  0  0  0  0
  1  2  1  0
  2  3  1  0
  3  4  1  0
  4  5  1  0
  5  6  1  0
  6  7  1  0
  7  8  1  1
  7  9  1  0
  9 10  2  0
 10 11  1  0
 10 12  1  0
 12 13  2  0
 13 14  1  0
 13 15  1  0
 15 16  1  0
 16 17  2  0
 17 18  1  0
 18 19  2  0
 19 20  1  0
 20 21  1  0
 20 22  2  0
 15  7  1  0
 22 16  1  0
M  END
>  <zinc_id>  (800) 
ZINC000013559307

>  <ortholog_name>  (800) 
DRTS_PLAFK

>  <gene_name>  (800) 
DRTS_PLAFK

>  <affinity>  (800) 
7.92

>  <chembldocid>  (800) 
17662

>  <title>  (800) 
None

>  <reference.pubmed_id>  (800) 
14736247

>  <reference.doi>  (800) 
None

>  <reference.chembl_id>  (800) 
CHEMBL1138835

>  <reference.journal>  (800) 
J. Med. Chem.

>  <reference.year>  (800) 
2004

$$$$

     RDKit          3D

 22 23  0  0  0  0  0  0  0  0999 V2000
    4.2668    3.4760    0.0378 C   0  0  0  0  0  0  0  0  0  0  0  0
    3.8415    2.0857   -0.3863 C   0  0  0  0  0  0  0  0  0  0  0  0
    2.8179    1.5725    0.6039 C   0  0  0  0  0  0  0  0  0  0  0  0
    2.3361    0.1985    0.2662 C   0  0  0  0  0  0  0  0  0  0  0  0
    1.6803    0.1104   -1.0828 C   0  0  0  0  0  0  0  0  0  0  0  0
    1.2340   -1.3064   -1.3238 C   0  0  0  0  0  0  0  0  0  0  0  0
    0.2270   -1.7631   -0.2602 C   0  0  2  0  0  0  0  0  0  0  0  0
    1.0160   -1.6142    1.0606 C   0  0  0  0  0  0  0  0  0  0  0  0
   -0.1154   -3.1352   -0.4685 N   0  0  0  0  0  0  0  0  0  0  0  0
   -1.2856   -3.5901   -0.5180 C   0  0  0  0  0  0  0  0  0  0  0  0
   -1.5494   -5.0067   -0.7335 N   0  0  0  0  0  0  0  0  0  0  0  0
   -2.3968   -2.7139   -0.3725 N   0  0  0  0  0  0  0  0  0  0  0  0
   -2.2352   -1.4523   -0.1908 C   0  0  0  0  0  0  0  0  0  0  0  0
   -3.3845   -0.6335   -0.0518 N   0  0  0  0  0  0  0  0  0  0  0  0
   -0.9040   -0.9169   -0.1460 N   0  0  0  0  0  0  0  0  0  0  0  0
   -0.8578    0.5140    0.0161 C   0  0  0  0  0  0  0  0  0  0  0  0
   -0.8956    1.2992   -1.1121 C   0  0  0  0  0  0  0  0  0  0  0  0
   -0.8571    2.6827   -1.0437 C   0  0  0  0  0  0  0  0  0  0  0  0
   -0.7785    3.2616    0.2100 C   0  0  0  0  0  0  0  0  0  0  0  0
   -0.7397    2.5005    1.3479 C   0  0  0  0  0  0  0  0  0  0  0  0
   -0.6402    3.3190    2.8924 Cl  0  0  0  0  0  0  0  0  0  0  0  0
   -0.7795    1.1121    1.2552 C   0  0  0  0  0  0  0  0  0  0  0  0
  1  2  1  0
  2  3  1  0
  3  4  1  0
  4  5  1  0
  5  6  1  0
  6  7  1  0
  7  8  1  1
  7  9  1  0
  9 10  2  0
 10 11  1  0
 10 12  1  0
 12 13  2  0
 13 14  1  0
 13 15  1  0
 15 16  1  0
 16 17  2  0
 17 18  1  0
 18 19  2  0
 19 20  1  0
 20 21  1  0
 20 22  2  0
 15  7  1  0
 22 16  1  0
M  END
>  <zinc_id>  (801) 
ZINC000013559307

>  <ortholog_name>  (801) 
DRTS_PLAFK

>  <gene_name>  (801) 
DRTS_PLAFK

>  <affinity>  (801) 
7.80

>  <chembldocid>  (801) 
17662

>  <title>  (801) 
None

>  <reference.pubmed_id>  (801) 
14736247

>  <reference.doi>  (801) 
None

>  <reference.chembl_id>  (801) 
CHEMBL1138835

>  <reference.journal>  (801) 
J. Med. Chem.

>  <reference.year>  (801) 
2004

$$$$

     RDKit          3D

 22 23  0  0  0  0  0  0  0  0999 V2000
    4.2668    3.4760    0.0378 C   0  0  0  0  0  0  0  0  0  0  0  0
    3.8415    2.0857   -0.3863 C   0  0  0  0  0  0  0  0  0  0  0  0
    2.8179    1.5725    0.6039 C   0  0  0  0  0  0  0  0  0  0  0  0
    2.3361    0.1985    0.2662 C   0  0  0  0  0  0  0  0  0  0  0  0
    1.6803    0.1104   -1.0828 C   0  0  0  0  0  0  0  0  0  0  0  0
    1.2340   -1.3064   -1.3238 C   0  0  0  0  0  0  0  0  0  0  0  0
    0.2270   -1.7631   -0.2602 C   0  0  2  0  0  0  0  0  0  0  0  0
    1.0160   -1.6142    1.0606 C   0  0  0  0  0  0  0  0  0  0  0  0
   -0.1154   -3.1352   -0.4685 N   0  0  0  0  0  0  0  0  0  0  0  0
   -1.2856   -3.5901   -0.5180 C   0  0  0  0  0  0  0  0  0  0  0  0
   -1.5494   -5.0067   -0.7335 N   0  0  0  0  0  0  0  0  0  0  0  0
   -2.3968   -2.7139   -0.3725 N   0  0  0  0  0  0  0  0  0  0  0  0
   -2.2352   -1.4523   -0.1908 C   0  0  0  0  0  0  0  0  0  0  0  0
   -3.3845   -0.6335   -0.0518 N   0  0  0  0  0  0  0  0  0  0  0  0
   -0.9040   -0.9169   -0.1460 N   0  0  0  0  0  0  0  0  0  0  0  0
   -0.8578    0.5140    0.0161 C   0  0  0  0  0  0  0  0  0  0  0  0
   -0.8956    1.2992   -1.1121 C   0  0  0  0  0  0  0  0  0  0  0  0
   -0.8571    2.6827   -1.0437 C   0  0  0  0  0  0  0  0  0  0  0  0
   -0.7785    3.2616    0.2100 C   0  0  0  0  0  0  0  0  0  0  0  0
   -0.7397    2.5005    1.3479 C   0  0  0  0  0  0  0  0  0  0  0  0
   -0.6402    3.3190    2.8924 Cl  0  0  0  0  0  0  0  0  0  0  0  0
   -0.7795    1.1121    1.2552 C   0  0  0  0  0  0  0  0  0  0  0  0
  1  2  1  0
  2  3  1  0
  3  4  1  0
  4  5  1  0
  5  6  1  0
  6  7  1  0
  7  8  1  1
  7  9  1  0
  9 10  2  0
 10 11  1  0
 10 12  1  0
 12 13  2  0
 13 14  1  0
 13 15  1  0
 15 16  1  0
 16 17  2  0
 17 18  1  0
 18 19  2  0
 19 20  1  0
 20 21  1  0
 20 22  2  0
 15  7  1  0
 22 16  1  0
M  END
>  <zinc_id>  (802) 
ZINC000013559307

>  <ortholog_name>  (802) 
DRTS_PLAFK

>  <gene_name>  (802) 
DRTS_PLAFK

>  <affinity>  (802) 
8.62

>  <chembldocid>  (802) 
17662

>  <title>  (802) 
None

>  <reference.pubmed_id>  (802) 
14736247

>  <reference.doi>  (802) 
None

>  <reference.chembl_id>  (802) 
CHEMBL1138835

>  <reference.journal>  (802) 
J. Med. Chem.

>  <reference.year>  (802) 
2004

$$$$

     RDKit          3D

 22 23  0  0  0  0  0  0  0  0999 V2000
    4.2668    3.4760    0.0378 C   0  0  0  0  0  0  0  0  0  0  0  0
    3.8415    2.0857   -0.3863 C   0  0  0  0  0  0  0  0  0  0  0  0
    2.8179    1.5725    0.6039 C   0  0  0  0  0  0  0  0  0  0  0  0
    2.3361    0.1985    0.2662 C   0  0  0  0  0  0  0  0  0  0  0  0
    1.6803    0.1104   -1.0828 C   0  0  0  0  0  0  0  0  0  0  0  0
    1.2340   -1.3064   -1.3238 C   0  0  0  0  0  0  0  0  0  0  0  0
    0.2270   -1.7631   -0.2602 C   0  0  2  0  0  0  0  0  0  0  0  0
    1.0160   -1.6142    1.0606 C   0  0  0  0  0  0  0  0  0  0  0  0
   -0.1154   -3.1352   -0.4685 N   0  0  0  0  0  0  0  0  0  0  0  0
   -1.2856   -3.5901   -0.5180 C   0  0  0  0  0  0  0  0  0  0  0  0
   -1.5494   -5.0067   -0.7335 N   0  0  0  0  0  0  0  0  0  0  0  0
   -2.3968   -2.7139   -0.3725 N   0  0  0  0  0  0  0  0  0  0  0  0
   -2.2352   -1.4523   -0.1908 C   0  0  0  0  0  0  0  0  0  0  0  0
   -3.3845   -0.6335   -0.0518 N   0  0  0  0  0  0  0  0  0  0  0  0
   -0.9040   -0.9169   -0.1460 N   0  0  0  0  0  0  0  0  0  0  0  0
   -0.8578    0.5140    0.0161 C   0  0  0  0  0  0  0  0  0  0  0  0
   -0.8956    1.2992   -1.1121 C   0  0  0  0  0  0  0  0  0  0  0  0
   -0.8571    2.6827   -1.0437 C   0  0  0  0  0  0  0  0  0  0  0  0
   -0.7785    3.2616    0.2100 C   0  0  0  0  0  0  0  0  0  0  0  0
   -0.7397    2.5005    1.3479 C   0  0  0  0  0  0  0  0  0  0  0  0
   -0.6402    3.3190    2.8924 Cl  0  0  0  0  0  0  0  0  0  0  0  0
   -0.7795    1.1121    1.2552 C   0  0  0  0  0  0  0  0  0  0  0  0
  1  2  1  0
  2  3  1  0
  3  4  1  0
  4  5  1  0
  5  6  1  0
  6  7  1  0
  7  8  1  1
  7  9  1  0
  9 10  2  0
 10 11  1  0
 10 12  1  0
 12 13  2  0
 13 14  1  0
 13 15  1  0
 15 16  1  0
 16 17  2  0
 17 18  1  0
 18 19  2  0
 19 20  1  0
 20 21  1  0
 20 22  2  0
 15  7  1  0
 22 16  1  0
M  END
>  <zinc_id>  (803) 
ZINC000013559307

>  <ortholog_name>  (803) 
DRTS_PLAFK

>  <gene_name>  (803) 
DRTS_PLAFK

>  <affinity>  (803) 
5.49

>  <chembldocid>  (803) 
17662

>  <title>  (803) 
None

>  <reference.pubmed_id>  (803) 
14736247

>  <reference.doi>  (803) 
None

>  <reference.chembl_id>  (803) 
CHEMBL1138835

>  <reference.journal>  (803) 
J. Med. Chem.

>  <reference.year>  (803) 
2004

$$$$

     RDKit          3D

 22 23  0  0  0  0  0  0  0  0999 V2000
    4.2668    3.4760    0.0378 C   0  0  0  0  0  0  0  0  0  0  0  0
    3.8415    2.0857   -0.3863 C   0  0  0  0  0  0  0  0  0  0  0  0
    2.8179    1.5725    0.6039 C   0  0  0  0  0  0  0  0  0  0  0  0
    2.3361    0.1985    0.2662 C   0  0  0  0  0  0  0  0  0  0  0  0
    1.6803    0.1104   -1.0828 C   0  0  0  0  0  0  0  0  0  0  0  0
    1.2340   -1.3064   -1.3238 C   0  0  0  0  0  0  0  0  0  0  0  0
    0.2270   -1.7631   -0.2602 C   0  0  2  0  0  0  0  0  0  0  0  0
    1.0160   -1.6142    1.0606 C   0  0  0  0  0  0  0  0  0  0  0  0
   -0.1154   -3.1352   -0.4685 N   0  0  0  0  0  0  0  0  0  0  0  0
   -1.2856   -3.5901   -0.5180 C   0  0  0  0  0  0  0  0  0  0  0  0
   -1.5494   -5.0067   -0.7335 N   0  0  0  0  0  0  0  0  0  0  0  0
   -2.3968   -2.7139   -0.3725 N   0  0  0  0  0  0  0  0  0  0  0  0
   -2.2352   -1.4523   -0.1908 C   0  0  0  0  0  0  0  0  0  0  0  0
   -3.3845   -0.6335   -0.0518 N   0  0  0  0  0  0  0  0  0  0  0  0
   -0.9040   -0.9169   -0.1460 N   0  0  0  0  0  0  0  0  0  0  0  0
   -0.8578    0.5140    0.0161 C   0  0  0  0  0  0  0  0  0  0  0  0
   -0.8956    1.2992   -1.1121 C   0  0  0  0  0  0  0  0  0  0  0  0
   -0.8571    2.6827   -1.0437 C   0  0  0  0  0  0  0  0  0  0  0  0
   -0.7785    3.2616    0.2100 C   0  0  0  0  0  0  0  0  0  0  0  0
   -0.7397    2.5005    1.3479 C   0  0  0  0  0  0  0  0  0  0  0  0
   -0.6402    3.3190    2.8924 Cl  0  0  0  0  0  0  0  0  0  0  0  0
   -0.7795    1.1121    1.2552 C   0  0  0  0  0  0  0  0  0  0  0  0
  1  2  1  0
  2  3  1  0
  3  4  1  0
  4  5  1  0
  5  6  1  0
  6  7  1  0
  7  8  1  1
  7  9  1  0
  9 10  2  0
 10 11  1  0
 10 12  1  0
 12 13  2  0
 13 14  1  0
 13 15  1  0
 15 16  1  0
 16 17  2  0
 17 18  1  0
 18 19  2  0
 19 20  1  0
 20 21  1  0
 20 22  2  0
 15  7  1  0
 22 16  1  0
M  END
>  <zinc_id>  (804) 
ZINC000013559307

>  <ortholog_name>  (804) 
DRTS_PLAFK

>  <gene_name>  (804) 
DRTS_PLAFK

>  <affinity>  (804) 
6.32

>  <chembldocid>  (804) 
17662

>  <title>  (804) 
None

>  <reference.pubmed_id>  (804) 
14736247

>  <reference.doi>  (804) 
None

>  <reference.chembl_id>  (804) 
CHEMBL1138835

>  <reference.journal>  (804) 
J. Med. Chem.

>  <reference.year>  (804) 
2004

$$$$

     RDKit          3D

 22 23  0  0  0  0  0  0  0  0999 V2000
    4.2668    3.4760    0.0378 C   0  0  0  0  0  0  0  0  0  0  0  0
    3.8415    2.0857   -0.3863 C   0  0  0  0  0  0  0  0  0  0  0  0
    2.8179    1.5725    0.6039 C   0  0  0  0  0  0  0  0  0  0  0  0
    2.3361    0.1985    0.2662 C   0  0  0  0  0  0  0  0  0  0  0  0
    1.6803    0.1104   -1.0828 C   0  0  0  0  0  0  0  0  0  0  0  0
    1.2340   -1.3064   -1.3238 C   0  0  0  0  0  0  0  0  0  0  0  0
    0.2270   -1.7631   -0.2602 C   0  0  2  0  0  0  0  0  0  0  0  0
    1.0160   -1.6142    1.0606 C   0  0  0  0  0  0  0  0  0  0  0  0
   -0.1154   -3.1352   -0.4685 N   0  0  0  0  0  0  0  0  0  0  0  0
   -1.2856   -3.5901   -0.5180 C   0  0  0  0  0  0  0  0  0  0  0  0
   -1.5494   -5.0067   -0.7335 N   0  0  0  0  0  0  0  0  0  0  0  0
   -2.3968   -2.7139   -0.3725 N   0  0  0  0  0  0  0  0  0  0  0  0
   -2.2352   -1.4523   -0.1908 C   0  0  0  0  0  0  0  0  0  0  0  0
   -3.3845   -0.6335   -0.0518 N   0  0  0  0  0  0  0  0  0  0  0  0
   -0.9040   -0.9169   -0.1460 N   0  0  0  0  0  0  0  0  0  0  0  0
   -0.8578    0.5140    0.0161 C   0  0  0  0  0  0  0  0  0  0  0  0
   -0.8956    1.2992   -1.1121 C   0  0  0  0  0  0  0  0  0  0  0  0
   -0.8571    2.6827   -1.0437 C   0  0  0  0  0  0  0  0  0  0  0  0
   -0.7785    3.2616    0.2100 C   0  0  0  0  0  0  0  0  0  0  0  0
   -0.7397    2.5005    1.3479 C   0  0  0  0  0  0  0  0  0  0  0  0
   -0.6402    3.3190    2.8924 Cl  0  0  0  0  0  0  0  0  0  0  0  0
   -0.7795    1.1121    1.2552 C   0  0  0  0  0  0  0  0  0  0  0  0
  1  2  1  0
  2  3  1  0
  3  4  1  0
  4  5  1  0
  5  6  1  0
  6  7  1  0
  7  8  1  1
  7  9  1  0
  9 10  2  0
 10 11  1  0
 10 12  1  0
 12 13  2  0
 13 14  1  0
 13 15  1  0
 15 16  1  0
 16 17  2  0
 17 18  1  0
 18 19  2  0
 19 20  1  0
 20 21  1  0
 20 22  2  0
 15  7  1  0
 22 16  1  0
M  END
>  <zinc_id>  (805) 
ZINC000013559307

>  <ortholog_name>  (805) 
DRTS_PLAFK

>  <gene_name>  (805) 
DRTS_PLAFK

>  <affinity>  (805) 
6.31

>  <chembldocid>  (805) 
17662

>  <title>  (805) 
None

>  <reference.pubmed_id>  (805) 
14736247

>  <reference.doi>  (805) 
None

>  <reference.chembl_id>  (805) 
CHEMBL1138835

>  <reference.journal>  (805) 
J. Med. Chem.

>  <reference.year>  (805) 
2004

$$$$

     RDKit          3D

 22 23  0  0  0  0  0  0  0  0999 V2000
    4.2668    3.4760    0.0378 C   0  0  0  0  0  0  0  0  0  0  0  0
    3.8415    2.0857   -0.3863 C   0  0  0  0  0  0  0  0  0  0  0  0
    2.8179    1.5725    0.6039 C   0  0  0  0  0  0  0  0  0  0  0  0
    2.3361    0.1985    0.2662 C   0  0  0  0  0  0  0  0  0  0  0  0
    1.6803    0.1104   -1.0828 C   0  0  0  0  0  0  0  0  0  0  0  0
    1.2340   -1.3064   -1.3238 C   0  0  0  0  0  0  0  0  0  0  0  0
    0.2270   -1.7631   -0.2602 C   0  0  2  0  0  0  0  0  0  0  0  0
    1.0160   -1.6142    1.0606 C   0  0  0  0  0  0  0  0  0  0  0  0
   -0.1154   -3.1352   -0.4685 N   0  0  0  0  0  0  0  0  0  0  0  0
   -1.2856   -3.5901   -0.5180 C   0  0  0  0  0  0  0  0  0  0  0  0
   -1.5494   -5.0067   -0.7335 N   0  0  0  0  0  0  0  0  0  0  0  0
   -2.3968   -2.7139   -0.3725 N   0  0  0  0  0  0  0  0  0  0  0  0
   -2.2352   -1.4523   -0.1908 C   0  0  0  0  0  0  0  0  0  0  0  0
   -3.3845   -0.6335   -0.0518 N   0  0  0  0  0  0  0  0  0  0  0  0
   -0.9040   -0.9169   -0.1460 N   0  0  0  0  0  0  0  0  0  0  0  0
   -0.8578    0.5140    0.0161 C   0  0  0  0  0  0  0  0  0  0  0  0
   -0.8956    1.2992   -1.1121 C   0  0  0  0  0  0  0  0  0  0  0  0
   -0.8571    2.6827   -1.0437 C   0  0  0  0  0  0  0  0  0  0  0  0
   -0.7785    3.2616    0.2100 C   0  0  0  0  0  0  0  0  0  0  0  0
   -0.7397    2.5005    1.3479 C   0  0  0  0  0  0  0  0  0  0  0  0
   -0.6402    3.3190    2.8924 Cl  0  0  0  0  0  0  0  0  0  0  0  0
   -0.7795    1.1121    1.2552 C   0  0  0  0  0  0  0  0  0  0  0  0
  1  2  1  0
  2  3  1  0
  3  4  1  0
  4  5  1  0
  5  6  1  0
  6  7  1  0
  7  8  1  1
  7  9  1  0
  9 10  2  0
 10 11  1  0
 10 12  1  0
 12 13  2  0
 13 14  1  0
 13 15  1  0
 15 16  1  0
 16 17  2  0
 17 18  1  0
 18 19  2  0
 19 20  1  0
 20 21  1  0
 20 22  2  0
 15  7  1  0
 22 16  1  0
M  END
>  <zinc_id>  (806) 
ZINC000013559307

>  <ortholog_name>  (806) 
DRTS_PLAFK

>  <gene_name>  (806) 
DRTS_PLAFK

>  <affinity>  (806) 
8.26

>  <chembldocid>  (806) 
17662

>  <title>  (806) 
None

>  <reference.pubmed_id>  (806) 
14736247

>  <reference.doi>  (806) 
None

>  <reference.chembl_id>  (806) 
CHEMBL1138835

>  <reference.journal>  (806) 
J. Med. Chem.

>  <reference.year>  (806) 
2004

$$$$

     RDKit          3D

 22 23  0  0  0  0  0  0  0  0999 V2000
    4.2668    3.4760    0.0378 C   0  0  0  0  0  0  0  0  0  0  0  0
    3.8415    2.0857   -0.3863 C   0  0  0  0  0  0  0  0  0  0  0  0
    2.8179    1.5725    0.6039 C   0  0  0  0  0  0  0  0  0  0  0  0
    2.3361    0.1985    0.2662 C   0  0  0  0  0  0  0  0  0  0  0  0
    1.6803    0.1104   -1.0828 C   0  0  0  0  0  0  0  0  0  0  0  0
    1.2340   -1.3064   -1.3238 C   0  0  0  0  0  0  0  0  0  0  0  0
    0.2270   -1.7631   -0.2602 C   0  0  2  0  0  0  0  0  0  0  0  0
    1.0160   -1.6142    1.0606 C   0  0  0  0  0  0  0  0  0  0  0  0
   -0.1154   -3.1352   -0.4685 N   0  0  0  0  0  0  0  0  0  0  0  0
   -1.2856   -3.5901   -0.5180 C   0  0  0  0  0  0  0  0  0  0  0  0
   -1.5494   -5.0067   -0.7335 N   0  0  0  0  0  0  0  0  0  0  0  0
   -2.3968   -2.7139   -0.3725 N   0  0  0  0  0  0  0  0  0  0  0  0
   -2.2352   -1.4523   -0.1908 C   0  0  0  0  0  0  0  0  0  0  0  0
   -3.3845   -0.6335   -0.0518 N   0  0  0  0  0  0  0  0  0  0  0  0
   -0.9040   -0.9169   -0.1460 N   0  0  0  0  0  0  0  0  0  0  0  0
   -0.8578    0.5140    0.0161 C   0  0  0  0  0  0  0  0  0  0  0  0
   -0.8956    1.2992   -1.1121 C   0  0  0  0  0  0  0  0  0  0  0  0
   -0.8571    2.6827   -1.0437 C   0  0  0  0  0  0  0  0  0  0  0  0
   -0.7785    3.2616    0.2100 C   0  0  0  0  0  0  0  0  0  0  0  0
   -0.7397    2.5005    1.3479 C   0  0  0  0  0  0  0  0  0  0  0  0
   -0.6402    3.3190    2.8924 Cl  0  0  0  0  0  0  0  0  0  0  0  0
   -0.7795    1.1121    1.2552 C   0  0  0  0  0  0  0  0  0  0  0  0
  1  2  1  0
  2  3  1  0
  3  4  1  0
  4  5  1  0
  5  6  1  0
  6  7  1  0
  7  8  1  1
  7  9  1  0
  9 10  2  0
 10 11  1  0
 10 12  1  0
 12 13  2  0
 13 14  1  0
 13 15  1  0
 15 16  1  0
 16 17  2  0
 17 18  1  0
 18 19  2  0
 19 20  1  0
 20 21  1  0
 20 22  2  0
 15  7  1  0
 22 16  1  0
M  END
>  <zinc_id>  (807) 
ZINC000013559307

>  <ortholog_name>  (807) 
DRTS_PLAFK

>  <gene_name>  (807) 
DRTS_PLAFK

>  <affinity>  (807) 
6.29

>  <chembldocid>  (807) 
17662

>  <title>  (807) 
None

>  <reference.pubmed_id>  (807) 
14736247

>  <reference.doi>  (807) 
None

>  <reference.chembl_id>  (807) 
CHEMBL1138835

>  <reference.journal>  (807) 
J. Med. Chem.

>  <reference.year>  (807) 
2004

$$$$

     RDKit          3D

 22 23  0  0  0  0  0  0  0  0999 V2000
    4.2668    3.4760    0.0378 C   0  0  0  0  0  0  0  0  0  0  0  0
    3.8415    2.0857   -0.3863 C   0  0  0  0  0  0  0  0  0  0  0  0
    2.8179    1.5725    0.6039 C   0  0  0  0  0  0  0  0  0  0  0  0
    2.3361    0.1985    0.2662 C   0  0  0  0  0  0  0  0  0  0  0  0
    1.6803    0.1104   -1.0828 C   0  0  0  0  0  0  0  0  0  0  0  0
    1.2340   -1.3064   -1.3238 C   0  0  0  0  0  0  0  0  0  0  0  0
    0.2270   -1.7631   -0.2602 C   0  0  2  0  0  0  0  0  0  0  0  0
    1.0160   -1.6142    1.0606 C   0  0  0  0  0  0  0  0  0  0  0  0
   -0.1154   -3.1352   -0.4685 N   0  0  0  0  0  0  0  0  0  0  0  0
   -1.2856   -3.5901   -0.5180 C   0  0  0  0  0  0  0  0  0  0  0  0
   -1.5494   -5.0067   -0.7335 N   0  0  0  0  0  0  0  0  0  0  0  0
   -2.3968   -2.7139   -0.3725 N   0  0  0  0  0  0  0  0  0  0  0  0
   -2.2352   -1.4523   -0.1908 C   0  0  0  0  0  0  0  0  0  0  0  0
   -3.3845   -0.6335   -0.0518 N   0  0  0  0  0  0  0  0  0  0  0  0
   -0.9040   -0.9169   -0.1460 N   0  0  0  0  0  0  0  0  0  0  0  0
   -0.8578    0.5140    0.0161 C   0  0  0  0  0  0  0  0  0  0  0  0
   -0.8956    1.2992   -1.1121 C   0  0  0  0  0  0  0  0  0  0  0  0
   -0.8571    2.6827   -1.0437 C   0  0  0  0  0  0  0  0  0  0  0  0
   -0.7785    3.2616    0.2100 C   0  0  0  0  0  0  0  0  0  0  0  0
   -0.7397    2.5005    1.3479 C   0  0  0  0  0  0  0  0  0  0  0  0
   -0.6402    3.3190    2.8924 Cl  0  0  0  0  0  0  0  0  0  0  0  0
   -0.7795    1.1121    1.2552 C   0  0  0  0  0  0  0  0  0  0  0  0
  1  2  1  0
  2  3  1  0
  3  4  1  0
  4  5  1  0
  5  6  1  0
  6  7  1  0
  7  8  1  1
  7  9  1  0
  9 10  2  0
 10 11  1  0
 10 12  1  0
 12 13  2  0
 13 14  1  0
 13 15  1  0
 15 16  1  0
 16 17  2  0
 17 18  1  0
 18 19  2  0
 19 20  1  0
 20 21  1  0
 20 22  2  0
 15  7  1  0
 22 16  1  0
M  END
>  <zinc_id>  (808) 
ZINC000013559307

>  <ortholog_name>  (808) 
DRTS_PLAFK

>  <gene_name>  (808) 
DRTS_PLAFK

>  <affinity>  (808) 
7.22

>  <chembldocid>  (808) 
17662

>  <title>  (808) 
None

>  <reference.pubmed_id>  (808) 
14736247

>  <reference.doi>  (808) 
None

>  <reference.chembl_id>  (808) 
CHEMBL1138835

>  <reference.journal>  (808) 
J. Med. Chem.

>  <reference.year>  (808) 
2004

$$$$

     RDKit          3D

 28 31  0  0  0  0  0  0  0  0999 V2000
   -1.6454   -5.2199    0.4760 N   0  0  0  0  0  0  0  0  0  0  0  0
   -1.8744   -3.8268    0.3478 C   0  0  0  0  0  0  0  0  0  0  0  0
   -1.4465   -3.0270    1.1449 N   0  0  0  0  0  0  0  0  0  0  0  0
   -1.6023   -1.5050    1.1520 C   0  0  1  0  0  0  0  0  0  0  0  0
   -0.1768   -1.1068    0.5437 C   0  0  0  0  0  0  0  0  0  0  0  0
    0.3263   -1.7366   -0.5084 C   0  0  0  0  0  0  0  0  0  0  0  0
    1.5401   -1.4178   -1.0484 C   0  0  0  0  0  0  0  0  0  0  0  0
    2.2711   -0.4112   -0.4879 C   0  0  0  0  0  0  0  0  0  0  0  0
    3.5071   -0.0046   -0.9485 O   0  0  0  0  0  0  0  0  0  0  0  0
    4.1604    1.0301   -0.3006 C   0  0  0  0  0  0  0  0  0  0  0  0
    3.9668    2.3400   -0.6911 C   0  0  0  0  0  0  0  0  0  0  0  0
    4.5945    3.3703   -0.0731 C   0  0  0  0  0  0  0  0  0  0  0  0
    5.4451    3.1020    0.9688 C   0  0  0  0  0  0  0  0  0  0  0  0
    5.6597    1.8197    1.3807 C   0  0  0  0  0  0  0  0  0  0  0  0
    5.0225    0.7892    0.7514 C   0  0  0  0  0  0  0  0  0  0  0  0
    1.7361    0.2276    0.5972 C   0  0  0  0  0  0  0  0  0  0  0  0
    0.5076   -0.0922    1.1468 C   0  0  0  0  0  0  0  0  0  0  0  0
   -2.4308   -1.1741   -0.0833 N   0  0  0  0  0  0  0  0  0  0  0  0
   -2.6704    0.2064   -0.2300 C   0  0  0  0  0  0  0  0  0  0  0  0
   -1.7728    0.9926   -0.9548 C   0  0  0  0  0  0  0  0  0  0  0  0
   -1.9383    2.3370   -1.1398 C   0  0  0  0  0  0  0  0  0  0  0  0
   -3.0453    2.9357   -0.5814 C   0  0  0  0  0  0  0  0  0  0  0  0
   -3.2393    4.6542   -0.8288 Cl  0  0  0  0  0  0  0  0  0  0  0  0
   -3.9384    2.1769    0.1347 C   0  0  0  0  0  0  0  0  0  0  0  0
   -3.7890    0.8197    0.3324 C   0  0  0  0  0  0  0  0  0  0  0  0
   -2.8912   -2.1430   -0.9586 C   0  0  0  0  0  0  0  0  0  0  0  0
   -3.6673   -1.7868   -2.1082 N   0  0  0  0  0  0  0  0  0  0  0  0
   -2.6090   -3.3497   -0.7172 N   0  0  0  0  0  0  0  0  0  0  0  0
  1  2  1  0
  2  3  2  0
  3  4  1  0
  4  5  1  6
  5  6  2  0
  6  7  1  0
  7  8  2  0
  8  9  1  0
  9 10  1  0
 10 11  2  0
 11 12  1  0
 12 13  2  0
 13 14  1  0
 14 15  2  0
  8 16  1  0
 16 17  2  0
  4 18  1  0
 18 19  1  0
 19 20  2  0
 20 21  1  0
 21 22  2  0
 22 23  1  0
 22 24  1  0
 24 25  2  0
 18 26  1  0
 26 27  1  0
 26 28  2  0
 28  2  1  0
 17  5  1  0
 25 19  1  0
 15 10  1  0
M  END
>  <zinc_id>  (809) 
ZINC000013559308

>  <ortholog_name>  (809) 
DRTS_PLAFK

>  <gene_name>  (809) 
DRTS_PLAFK

>  <affinity>  (809) 
9.40

>  <chembldocid>  (809) 
17662

>  <title>  (809) 
None

>  <reference.pubmed_id>  (809) 
14736247

>  <reference.doi>  (809) 
None

>  <reference.chembl_id>  (809) 
CHEMBL1138835

>  <reference.journal>  (809) 
J. Med. Chem.

>  <reference.year>  (809) 
2004

$$$$

     RDKit          3D

 28 31  0  0  0  0  0  0  0  0999 V2000
   -1.6454   -5.2199    0.4760 N   0  0  0  0  0  0  0  0  0  0  0  0
   -1.8744   -3.8268    0.3478 C   0  0  0  0  0  0  0  0  0  0  0  0
   -1.4465   -3.0270    1.1449 N   0  0  0  0  0  0  0  0  0  0  0  0
   -1.6023   -1.5050    1.1520 C   0  0  1  0  0  0  0  0  0  0  0  0
   -0.1768   -1.1068    0.5437 C   0  0  0  0  0  0  0  0  0  0  0  0
    0.3263   -1.7366   -0.5084 C   0  0  0  0  0  0  0  0  0  0  0  0
    1.5401   -1.4178   -1.0484 C   0  0  0  0  0  0  0  0  0  0  0  0
    2.2711   -0.4112   -0.4879 C   0  0  0  0  0  0  0  0  0  0  0  0
    3.5071   -0.0046   -0.9485 O   0  0  0  0  0  0  0  0  0  0  0  0
    4.1604    1.0301   -0.3006 C   0  0  0  0  0  0  0  0  0  0  0  0
    3.9668    2.3400   -0.6911 C   0  0  0  0  0  0  0  0  0  0  0  0
    4.5945    3.3703   -0.0731 C   0  0  0  0  0  0  0  0  0  0  0  0
    5.4451    3.1020    0.9688 C   0  0  0  0  0  0  0  0  0  0  0  0
    5.6597    1.8197    1.3807 C   0  0  0  0  0  0  0  0  0  0  0  0
    5.0225    0.7892    0.7514 C   0  0  0  0  0  0  0  0  0  0  0  0
    1.7361    0.2276    0.5972 C   0  0  0  0  0  0  0  0  0  0  0  0
    0.5076   -0.0922    1.1468 C   0  0  0  0  0  0  0  0  0  0  0  0
   -2.4308   -1.1741   -0.0833 N   0  0  0  0  0  0  0  0  0  0  0  0
   -2.6704    0.2064   -0.2300 C   0  0  0  0  0  0  0  0  0  0  0  0
   -1.7728    0.9926   -0.9548 C   0  0  0  0  0  0  0  0  0  0  0  0
   -1.9383    2.3370   -1.1398 C   0  0  0  0  0  0  0  0  0  0  0  0
   -3.0453    2.9357   -0.5814 C   0  0  0  0  0  0  0  0  0  0  0  0
   -3.2393    4.6542   -0.8288 Cl  0  0  0  0  0  0  0  0  0  0  0  0
   -3.9384    2.1769    0.1347 C   0  0  0  0  0  0  0  0  0  0  0  0
   -3.7890    0.8197    0.3324 C   0  0  0  0  0  0  0  0  0  0  0  0
   -2.8912   -2.1430   -0.9586 C   0  0  0  0  0  0  0  0  0  0  0  0
   -3.6673   -1.7868   -2.1082 N   0  0  0  0  0  0  0  0  0  0  0  0
   -2.6090   -3.3497   -0.7172 N   0  0  0  0  0  0  0  0  0  0  0  0
  1  2  1  0
  2  3  2  0
  3  4  1  0
  4  5  1  6
  5  6  2  0
  6  7  1  0
  7  8  2  0
  8  9  1  0
  9 10  1  0
 10 11  2  0
 11 12  1  0
 12 13  2  0
 13 14  1  0
 14 15  2  0
  8 16  1  0
 16 17  2  0
  4 18  1  0
 18 19  1  0
 19 20  2  0
 20 21  1  0
 21 22  2  0
 22 23  1  0
 22 24  1  0
 24 25  2  0
 18 26  1  0
 26 27  1  0
 26 28  2  0
 28  2  1  0
 17  5  1  0
 25 19  1  0
 15 10  1  0
M  END
>  <zinc_id>  (810) 
ZINC000013559308

>  <ortholog_name>  (810) 
DRTS_PLAFK

>  <gene_name>  (810) 
DRTS_PLAFK

>  <affinity>  (810) 
6.92

>  <chembldocid>  (810) 
17662

>  <title>  (810) 
None

>  <reference.pubmed_id>  (810) 
14736247

>  <reference.doi>  (810) 
None

>  <reference.chembl_id>  (810) 
CHEMBL1138835

>  <reference.journal>  (810) 
J. Med. Chem.

>  <reference.year>  (810) 
2004

$$$$

     RDKit          3D

 28 31  0  0  0  0  0  0  0  0999 V2000
   -1.6454   -5.2199    0.4760 N   0  0  0  0  0  0  0  0  0  0  0  0
   -1.8744   -3.8268    0.3478 C   0  0  0  0  0  0  0  0  0  0  0  0
   -1.4465   -3.0270    1.1449 N   0  0  0  0  0  0  0  0  0  0  0  0
   -1.6023   -1.5050    1.1520 C   0  0  1  0  0  0  0  0  0  0  0  0
   -0.1768   -1.1068    0.5437 C   0  0  0  0  0  0  0  0  0  0  0  0
    0.3263   -1.7366   -0.5084 C   0  0  0  0  0  0  0  0  0  0  0  0
    1.5401   -1.4178   -1.0484 C   0  0  0  0  0  0  0  0  0  0  0  0
    2.2711   -0.4112   -0.4879 C   0  0  0  0  0  0  0  0  0  0  0  0
    3.5071   -0.0046   -0.9485 O   0  0  0  0  0  0  0  0  0  0  0  0
    4.1604    1.0301   -0.3006 C   0  0  0  0  0  0  0  0  0  0  0  0
    3.9668    2.3400   -0.6911 C   0  0  0  0  0  0  0  0  0  0  0  0
    4.5945    3.3703   -0.0731 C   0  0  0  0  0  0  0  0  0  0  0  0
    5.4451    3.1020    0.9688 C   0  0  0  0  0  0  0  0  0  0  0  0
    5.6597    1.8197    1.3807 C   0  0  0  0  0  0  0  0  0  0  0  0
    5.0225    0.7892    0.7514 C   0  0  0  0  0  0  0  0  0  0  0  0
    1.7361    0.2276    0.5972 C   0  0  0  0  0  0  0  0  0  0  0  0
    0.5076   -0.0922    1.1468 C   0  0  0  0  0  0  0  0  0  0  0  0
   -2.4308   -1.1741   -0.0833 N   0  0  0  0  0  0  0  0  0  0  0  0
   -2.6704    0.2064   -0.2300 C   0  0  0  0  0  0  0  0  0  0  0  0
   -1.7728    0.9926   -0.9548 C   0  0  0  0  0  0  0  0  0  0  0  0
   -1.9383    2.3370   -1.1398 C   0  0  0  0  0  0  0  0  0  0  0  0
   -3.0453    2.9357   -0.5814 C   0  0  0  0  0  0  0  0  0  0  0  0
   -3.2393    4.6542   -0.8288 Cl  0  0  0  0  0  0  0  0  0  0  0  0
   -3.9384    2.1769    0.1347 C   0  0  0  0  0  0  0  0  0  0  0  0
   -3.7890    0.8197    0.3324 C   0  0  0  0  0  0  0  0  0  0  0  0
   -2.8912   -2.1430   -0.9586 C   0  0  0  0  0  0  0  0  0  0  0  0
   -3.6673   -1.7868   -2.1082 N   0  0  0  0  0  0  0  0  0  0  0  0
   -2.6090   -3.3497   -0.7172 N   0  0  0  0  0  0  0  0  0  0  0  0
  1  2  1  0
  2  3  2  0
  3  4  1  0
  4  5  1  6
  5  6  2  0
  6  7  1  0
  7  8  2  0
  8  9  1  0
  9 10  1  0
 10 11  2  0
 11 12  1  0
 12 13  2  0
 13 14  1  0
 14 15  2  0
  8 16  1  0
 16 17  2  0
  4 18  1  0
 18 19  1  0
 19 20  2  0
 20 21  1  0
 21 22  2  0
 22 23  1  0
 22 24  1  0
 24 25  2  0
 18 26  1  0
 26 27  1  0
 26 28  2  0
 28  2  1  0
 17  5  1  0
 25 19  1  0
 15 10  1  0
M  END
>  <zinc_id>  (811) 
ZINC000013559308

>  <ortholog_name>  (811) 
DRTS_PLAFK

>  <gene_name>  (811) 
DRTS_PLAFK

>  <affinity>  (811) 
6.84

>  <chembldocid>  (811) 
17662

>  <title>  (811) 
None

>  <reference.pubmed_id>  (811) 
14736247

>  <reference.doi>  (811) 
None

>  <reference.chembl_id>  (811) 
CHEMBL1138835

>  <reference.journal>  (811) 
J. Med. Chem.

>  <reference.year>  (811) 
2004

$$$$

     RDKit          3D

 28 31  0  0  0  0  0  0  0  0999 V2000
   -1.6454   -5.2199    0.4760 N   0  0  0  0  0  0  0  0  0  0  0  0
   -1.8744   -3.8268    0.3478 C   0  0  0  0  0  0  0  0  0  0  0  0
   -1.4465   -3.0270    1.1449 N   0  0  0  0  0  0  0  0  0  0  0  0
   -1.6023   -1.5050    1.1520 C   0  0  1  0  0  0  0  0  0  0  0  0
   -0.1768   -1.1068    0.5437 C   0  0  0  0  0  0  0  0  0  0  0  0
    0.3263   -1.7366   -0.5084 C   0  0  0  0  0  0  0  0  0  0  0  0
    1.5401   -1.4178   -1.0484 C   0  0  0  0  0  0  0  0  0  0  0  0
    2.2711   -0.4112   -0.4879 C   0  0  0  0  0  0  0  0  0  0  0  0
    3.5071   -0.0046   -0.9485 O   0  0  0  0  0  0  0  0  0  0  0  0
    4.1604    1.0301   -0.3006 C   0  0  0  0  0  0  0  0  0  0  0  0
    3.9668    2.3400   -0.6911 C   0  0  0  0  0  0  0  0  0  0  0  0
    4.5945    3.3703   -0.0731 C   0  0  0  0  0  0  0  0  0  0  0  0
    5.4451    3.1020    0.9688 C   0  0  0  0  0  0  0  0  0  0  0  0
    5.6597    1.8197    1.3807 C   0  0  0  0  0  0  0  0  0  0  0  0
    5.0225    0.7892    0.7514 C   0  0  0  0  0  0  0  0  0  0  0  0
    1.7361    0.2276    0.5972 C   0  0  0  0  0  0  0  0  0  0  0  0
    0.5076   -0.0922    1.1468 C   0  0  0  0  0  0  0  0  0  0  0  0
   -2.4308   -1.1741   -0.0833 N   0  0  0  0  0  0  0  0  0  0  0  0
   -2.6704    0.2064   -0.2300 C   0  0  0  0  0  0  0  0  0  0  0  0
   -1.7728    0.9926   -0.9548 C   0  0  0  0  0  0  0  0  0  0  0  0
   -1.9383    2.3370   -1.1398 C   0  0  0  0  0  0  0  0  0  0  0  0
   -3.0453    2.9357   -0.5814 C   0  0  0  0  0  0  0  0  0  0  0  0
   -3.2393    4.6542   -0.8288 Cl  0  0  0  0  0  0  0  0  0  0  0  0
   -3.9384    2.1769    0.1347 C   0  0  0  0  0  0  0  0  0  0  0  0
   -3.7890    0.8197    0.3324 C   0  0  0  0  0  0  0  0  0  0  0  0
   -2.8912   -2.1430   -0.9586 C   0  0  0  0  0  0  0  0  0  0  0  0
   -3.6673   -1.7868   -2.1082 N   0  0  0  0  0  0  0  0  0  0  0  0
   -2.6090   -3.3497   -0.7172 N   0  0  0  0  0  0  0  0  0  0  0  0
  1  2  1  0
  2  3  2  0
  3  4  1  0
  4  5  1  6
  5  6  2  0
  6  7  1  0
  7  8  2  0
  8  9  1  0
  9 10  1  0
 10 11  2  0
 11 12  1  0
 12 13  2  0
 13 14  1  0
 14 15  2  0
  8 16  1  0
 16 17  2  0
  4 18  1  0
 18 19  1  0
 19 20  2  0
 20 21  1  0
 21 22  2  0
 22 23  1  0
 22 24  1  0
 24 25  2  0
 18 26  1  0
 26 27  1  0
 26 28  2  0
 28  2  1  0
 17  5  1  0
 25 19  1  0
 15 10  1  0
M  END
>  <zinc_id>  (812) 
ZINC000013559308

>  <ortholog_name>  (812) 
DRTS_PLAFK

>  <gene_name>  (812) 
DRTS_PLAFK

>  <affinity>  (812) 
6.65

>  <chembldocid>  (812) 
17662

>  <title>  (812) 
None

>  <reference.pubmed_id>  (812) 
14736247

>  <reference.doi>  (812) 
None

>  <reference.chembl_id>  (812) 
CHEMBL1138835

>  <reference.journal>  (812) 
J. Med. Chem.

>  <reference.year>  (812) 
2004

$$$$

     RDKit          3D

 28 31  0  0  0  0  0  0  0  0999 V2000
   -1.6454   -5.2199    0.4760 N   0  0  0  0  0  0  0  0  0  0  0  0
   -1.8744   -3.8268    0.3478 C   0  0  0  0  0  0  0  0  0  0  0  0
   -1.4465   -3.0270    1.1449 N   0  0  0  0  0  0  0  0  0  0  0  0
   -1.6023   -1.5050    1.1520 C   0  0  1  0  0  0  0  0  0  0  0  0
   -0.1768   -1.1068    0.5437 C   0  0  0  0  0  0  0  0  0  0  0  0
    0.3263   -1.7366   -0.5084 C   0  0  0  0  0  0  0  0  0  0  0  0
    1.5401   -1.4178   -1.0484 C   0  0  0  0  0  0  0  0  0  0  0  0
    2.2711   -0.4112   -0.4879 C   0  0  0  0  0  0  0  0  0  0  0  0
    3.5071   -0.0046   -0.9485 O   0  0  0  0  0  0  0  0  0  0  0  0
    4.1604    1.0301   -0.3006 C   0  0  0  0  0  0  0  0  0  0  0  0
    3.9668    2.3400   -0.6911 C   0  0  0  0  0  0  0  0  0  0  0  0
    4.5945    3.3703   -0.0731 C   0  0  0  0  0  0  0  0  0  0  0  0
    5.4451    3.1020    0.9688 C   0  0  0  0  0  0  0  0  0  0  0  0
    5.6597    1.8197    1.3807 C   0  0  0  0  0  0  0  0  0  0  0  0
    5.0225    0.7892    0.7514 C   0  0  0  0  0  0  0  0  0  0  0  0
    1.7361    0.2276    0.5972 C   0  0  0  0  0  0  0  0  0  0  0  0
    0.5076   -0.0922    1.1468 C   0  0  0  0  0  0  0  0  0  0  0  0
   -2.4308   -1.1741   -0.0833 N   0  0  0  0  0  0  0  0  0  0  0  0
   -2.6704    0.2064   -0.2300 C   0  0  0  0  0  0  0  0  0  0  0  0
   -1.7728    0.9926   -0.9548 C   0  0  0  0  0  0  0  0  0  0  0  0
   -1.9383    2.3370   -1.1398 C   0  0  0  0  0  0  0  0  0  0  0  0
   -3.0453    2.9357   -0.5814 C   0  0  0  0  0  0  0  0  0  0  0  0
   -3.2393    4.6542   -0.8288 Cl  0  0  0  0  0  0  0  0  0  0  0  0
   -3.9384    2.1769    0.1347 C   0  0  0  0  0  0  0  0  0  0  0  0
   -3.7890    0.8197    0.3324 C   0  0  0  0  0  0  0  0  0  0  0  0
   -2.8912   -2.1430   -0.9586 C   0  0  0  0  0  0  0  0  0  0  0  0
   -3.6673   -1.7868   -2.1082 N   0  0  0  0  0  0  0  0  0  0  0  0
   -2.6090   -3.3497   -0.7172 N   0  0  0  0  0  0  0  0  0  0  0  0
  1  2  1  0
  2  3  2  0
  3  4  1  0
  4  5  1  6
  5  6  2  0
  6  7  1  0
  7  8  2  0
  8  9  1  0
  9 10  1  0
 10 11  2  0
 11 12  1  0
 12 13  2  0
 13 14  1  0
 14 15  2  0
  8 16  1  0
 16 17  2  0
  4 18  1  0
 18 19  1  0
 19 20  2  0
 20 21  1  0
 21 22  2  0
 22 23  1  0
 22 24  1  0
 24 25  2  0
 18 26  1  0
 26 27  1  0
 26 28  2  0
 28  2  1  0
 17  5  1  0
 25 19  1  0
 15 10  1  0
M  END
>  <zinc_id>  (813) 
ZINC000013559308

>  <ortholog_name>  (813) 
DRTS_PLAFK

>  <gene_name>  (813) 
DRTS_PLAFK

>  <affinity>  (813) 
7.53

>  <chembldocid>  (813) 
17662

>  <title>  (813) 
None

>  <reference.pubmed_id>  (813) 
14736247

>  <reference.doi>  (813) 
None

>  <reference.chembl_id>  (813) 
CHEMBL1138835

>  <reference.journal>  (813) 
J. Med. Chem.

>  <reference.year>  (813) 
2004

$$$$

     RDKit          3D

 28 31  0  0  0  0  0  0  0  0999 V2000
   -1.6454   -5.2199    0.4760 N   0  0  0  0  0  0  0  0  0  0  0  0
   -1.8744   -3.8268    0.3478 C   0  0  0  0  0  0  0  0  0  0  0  0
   -1.4465   -3.0270    1.1449 N   0  0  0  0  0  0  0  0  0  0  0  0
   -1.6023   -1.5050    1.1520 C   0  0  1  0  0  0  0  0  0  0  0  0
   -0.1768   -1.1068    0.5437 C   0  0  0  0  0  0  0  0  0  0  0  0
    0.3263   -1.7366   -0.5084 C   0  0  0  0  0  0  0  0  0  0  0  0
    1.5401   -1.4178   -1.0484 C   0  0  0  0  0  0  0  0  0  0  0  0
    2.2711   -0.4112   -0.4879 C   0  0  0  0  0  0  0  0  0  0  0  0
    3.5071   -0.0046   -0.9485 O   0  0  0  0  0  0  0  0  0  0  0  0
    4.1604    1.0301   -0.3006 C   0  0  0  0  0  0  0  0  0  0  0  0
    3.9668    2.3400   -0.6911 C   0  0  0  0  0  0  0  0  0  0  0  0
    4.5945    3.3703   -0.0731 C   0  0  0  0  0  0  0  0  0  0  0  0
    5.4451    3.1020    0.9688 C   0  0  0  0  0  0  0  0  0  0  0  0
    5.6597    1.8197    1.3807 C   0  0  0  0  0  0  0  0  0  0  0  0
    5.0225    0.7892    0.7514 C   0  0  0  0  0  0  0  0  0  0  0  0
    1.7361    0.2276    0.5972 C   0  0  0  0  0  0  0  0  0  0  0  0
    0.5076   -0.0922    1.1468 C   0  0  0  0  0  0  0  0  0  0  0  0
   -2.4308   -1.1741   -0.0833 N   0  0  0  0  0  0  0  0  0  0  0  0
   -2.6704    0.2064   -0.2300 C   0  0  0  0  0  0  0  0  0  0  0  0
   -1.7728    0.9926   -0.9548 C   0  0  0  0  0  0  0  0  0  0  0  0
   -1.9383    2.3370   -1.1398 C   0  0  0  0  0  0  0  0  0  0  0  0
   -3.0453    2.9357   -0.5814 C   0  0  0  0  0  0  0  0  0  0  0  0
   -3.2393    4.6542   -0.8288 Cl  0  0  0  0  0  0  0  0  0  0  0  0
   -3.9384    2.1769    0.1347 C   0  0  0  0  0  0  0  0  0  0  0  0
   -3.7890    0.8197    0.3324 C   0  0  0  0  0  0  0  0  0  0  0  0
   -2.8912   -2.1430   -0.9586 C   0  0  0  0  0  0  0  0  0  0  0  0
   -3.6673   -1.7868   -2.1082 N   0  0  0  0  0  0  0  0  0  0  0  0
   -2.6090   -3.3497   -0.7172 N   0  0  0  0  0  0  0  0  0  0  0  0
  1  2  1  0
  2  3  2  0
  3  4  1  0
  4  5  1  6
  5  6  2  0
  6  7  1  0
  7  8  2  0
  8  9  1  0
  9 10  1  0
 10 11  2  0
 11 12  1  0
 12 13  2  0
 13 14  1  0
 14 15  2  0
  8 16  1  0
 16 17  2  0
  4 18  1  0
 18 19  1  0
 19 20  2  0
 20 21  1  0
 21 22  2  0
 22 23  1  0
 22 24  1  0
 24 25  2  0
 18 26  1  0
 26 27  1  0
 26 28  2  0
 28  2  1  0
 17  5  1  0
 25 19  1  0
 15 10  1  0
M  END
>  <zinc_id>  (814) 
ZINC000013559308

>  <ortholog_name>  (814) 
DRTS_PLAFK

>  <gene_name>  (814) 
DRTS_PLAFK

>  <affinity>  (814) 
8.42

>  <chembldocid>  (814) 
17662

>  <title>  (814) 
None

>  <reference.pubmed_id>  (814) 
14736247

>  <reference.doi>  (814) 
None

>  <reference.chembl_id>  (814) 
CHEMBL1138835

>  <reference.journal>  (814) 
J. Med. Chem.

>  <reference.year>  (814) 
2004

$$$$

     RDKit          3D

 28 31  0  0  0  0  0  0  0  0999 V2000
   -1.6454   -5.2199    0.4760 N   0  0  0  0  0  0  0  0  0  0  0  0
   -1.8744   -3.8268    0.3478 C   0  0  0  0  0  0  0  0  0  0  0  0
   -1.4465   -3.0270    1.1449 N   0  0  0  0  0  0  0  0  0  0  0  0
   -1.6023   -1.5050    1.1520 C   0  0  1  0  0  0  0  0  0  0  0  0
   -0.1768   -1.1068    0.5437 C   0  0  0  0  0  0  0  0  0  0  0  0
    0.3263   -1.7366   -0.5084 C   0  0  0  0  0  0  0  0  0  0  0  0
    1.5401   -1.4178   -1.0484 C   0  0  0  0  0  0  0  0  0  0  0  0
    2.2711   -0.4112   -0.4879 C   0  0  0  0  0  0  0  0  0  0  0  0
    3.5071   -0.0046   -0.9485 O   0  0  0  0  0  0  0  0  0  0  0  0
    4.1604    1.0301   -0.3006 C   0  0  0  0  0  0  0  0  0  0  0  0
    3.9668    2.3400   -0.6911 C   0  0  0  0  0  0  0  0  0  0  0  0
    4.5945    3.3703   -0.0731 C   0  0  0  0  0  0  0  0  0  0  0  0
    5.4451    3.1020    0.9688 C   0  0  0  0  0  0  0  0  0  0  0  0
    5.6597    1.8197    1.3807 C   0  0  0  0  0  0  0  0  0  0  0  0
    5.0225    0.7892    0.7514 C   0  0  0  0  0  0  0  0  0  0  0  0
    1.7361    0.2276    0.5972 C   0  0  0  0  0  0  0  0  0  0  0  0
    0.5076   -0.0922    1.1468 C   0  0  0  0  0  0  0  0  0  0  0  0
   -2.4308   -1.1741   -0.0833 N   0  0  0  0  0  0  0  0  0  0  0  0
   -2.6704    0.2064   -0.2300 C   0  0  0  0  0  0  0  0  0  0  0  0
   -1.7728    0.9926   -0.9548 C   0  0  0  0  0  0  0  0  0  0  0  0
   -1.9383    2.3370   -1.1398 C   0  0  0  0  0  0  0  0  0  0  0  0
   -3.0453    2.9357   -0.5814 C   0  0  0  0  0  0  0  0  0  0  0  0
   -3.2393    4.6542   -0.8288 Cl  0  0  0  0  0  0  0  0  0  0  0  0
   -3.9384    2.1769    0.1347 C   0  0  0  0  0  0  0  0  0  0  0  0
   -3.7890    0.8197    0.3324 C   0  0  0  0  0  0  0  0  0  0  0  0
   -2.8912   -2.1430   -0.9586 C   0  0  0  0  0  0  0  0  0  0  0  0
   -3.6673   -1.7868   -2.1082 N   0  0  0  0  0  0  0  0  0  0  0  0
   -2.6090   -3.3497   -0.7172 N   0  0  0  0  0  0  0  0  0  0  0  0
  1  2  1  0
  2  3  2  0
  3  4  1  0
  4  5  1  6
  5  6  2  0
  6  7  1  0
  7  8  2  0
  8  9  1  0
  9 10  1  0
 10 11  2  0
 11 12  1  0
 12 13  2  0
 13 14  1  0
 14 15  2  0
  8 16  1  0
 16 17  2  0
  4 18  1  0
 18 19  1  0
 19 20  2  0
 20 21  1  0
 21 22  2  0
 22 23  1  0
 22 24  1  0
 24 25  2  0
 18 26  1  0
 26 27  1  0
 26 28  2  0
 28  2  1  0
 17  5  1  0
 25 19  1  0
 15 10  1  0
M  END
>  <zinc_id>  (815) 
ZINC000013559308

>  <ortholog_name>  (815) 
DRTS_PLAFK

>  <gene_name>  (815) 
DRTS_PLAFK

>  <affinity>  (815) 
5.51

>  <chembldocid>  (815) 
17662

>  <title>  (815) 
None

>  <reference.pubmed_id>  (815) 
14736247

>  <reference.doi>  (815) 
None

>  <reference.chembl_id>  (815) 
CHEMBL1138835

>  <reference.journal>  (815) 
J. Med. Chem.

>  <reference.year>  (815) 
2004

$$$$

     RDKit          3D

 28 31  0  0  0  0  0  0  0  0999 V2000
   -1.6454   -5.2199    0.4760 N   0  0  0  0  0  0  0  0  0  0  0  0
   -1.8744   -3.8268    0.3478 C   0  0  0  0  0  0  0  0  0  0  0  0
   -1.4465   -3.0270    1.1449 N   0  0  0  0  0  0  0  0  0  0  0  0
   -1.6023   -1.5050    1.1520 C   0  0  1  0  0  0  0  0  0  0  0  0
   -0.1768   -1.1068    0.5437 C   0  0  0  0  0  0  0  0  0  0  0  0
    0.3263   -1.7366   -0.5084 C   0  0  0  0  0  0  0  0  0  0  0  0
    1.5401   -1.4178   -1.0484 C   0  0  0  0  0  0  0  0  0  0  0  0
    2.2711   -0.4112   -0.4879 C   0  0  0  0  0  0  0  0  0  0  0  0
    3.5071   -0.0046   -0.9485 O   0  0  0  0  0  0  0  0  0  0  0  0
    4.1604    1.0301   -0.3006 C   0  0  0  0  0  0  0  0  0  0  0  0
    3.9668    2.3400   -0.6911 C   0  0  0  0  0  0  0  0  0  0  0  0
    4.5945    3.3703   -0.0731 C   0  0  0  0  0  0  0  0  0  0  0  0
    5.4451    3.1020    0.9688 C   0  0  0  0  0  0  0  0  0  0  0  0
    5.6597    1.8197    1.3807 C   0  0  0  0  0  0  0  0  0  0  0  0
    5.0225    0.7892    0.7514 C   0  0  0  0  0  0  0  0  0  0  0  0
    1.7361    0.2276    0.5972 C   0  0  0  0  0  0  0  0  0  0  0  0
    0.5076   -0.0922    1.1468 C   0  0  0  0  0  0  0  0  0  0  0  0
   -2.4308   -1.1741   -0.0833 N   0  0  0  0  0  0  0  0  0  0  0  0
   -2.6704    0.2064   -0.2300 C   0  0  0  0  0  0  0  0  0  0  0  0
   -1.7728    0.9926   -0.9548 C   0  0  0  0  0  0  0  0  0  0  0  0
   -1.9383    2.3370   -1.1398 C   0  0  0  0  0  0  0  0  0  0  0  0
   -3.0453    2.9357   -0.5814 C   0  0  0  0  0  0  0  0  0  0  0  0
   -3.2393    4.6542   -0.8288 Cl  0  0  0  0  0  0  0  0  0  0  0  0
   -3.9384    2.1769    0.1347 C   0  0  0  0  0  0  0  0  0  0  0  0
   -3.7890    0.8197    0.3324 C   0  0  0  0  0  0  0  0  0  0  0  0
   -2.8912   -2.1430   -0.9586 C   0  0  0  0  0  0  0  0  0  0  0  0
   -3.6673   -1.7868   -2.1082 N   0  0  0  0  0  0  0  0  0  0  0  0
   -2.6090   -3.3497   -0.7172 N   0  0  0  0  0  0  0  0  0  0  0  0
  1  2  1  0
  2  3  2  0
  3  4  1  0
  4  5  1  6
  5  6  2  0
  6  7  1  0
  7  8  2  0
  8  9  1  0
  9 10  1  0
 10 11  2  0
 11 12  1  0
 12 13  2  0
 13 14  1  0
 14 15  2  0
  8 16  1  0
 16 17  2  0
  4 18  1  0
 18 19  1  0
 19 20  2  0
 20 21  1  0
 21 22  2  0
 22 23  1  0
 22 24  1  0
 24 25  2  0
 18 26  1  0
 26 27  1  0
 26 28  2  0
 28  2  1  0
 17  5  1  0
 25 19  1  0
 15 10  1  0
M  END
>  <zinc_id>  (816) 
ZINC000013559308

>  <ortholog_name>  (816) 
DRTS_PLAFK

>  <gene_name>  (816) 
DRTS_PLAFK

>  <affinity>  (816) 
5.49

>  <chembldocid>  (816) 
17662

>  <title>  (816) 
None

>  <reference.pubmed_id>  (816) 
14736247

>  <reference.doi>  (816) 
None

>  <reference.chembl_id>  (816) 
CHEMBL1138835

>  <reference.journal>  (816) 
J. Med. Chem.

>  <reference.year>  (816) 
2004

$$$$

     RDKit          3D

 28 31  0  0  0  0  0  0  0  0999 V2000
   -1.6454   -5.2199    0.4760 N   0  0  0  0  0  0  0  0  0  0  0  0
   -1.8744   -3.8268    0.3478 C   0  0  0  0  0  0  0  0  0  0  0  0
   -1.4465   -3.0270    1.1449 N   0  0  0  0  0  0  0  0  0  0  0  0
   -1.6023   -1.5050    1.1520 C   0  0  1  0  0  0  0  0  0  0  0  0
   -0.1768   -1.1068    0.5437 C   0  0  0  0  0  0  0  0  0  0  0  0
    0.3263   -1.7366   -0.5084 C   0  0  0  0  0  0  0  0  0  0  0  0
    1.5401   -1.4178   -1.0484 C   0  0  0  0  0  0  0  0  0  0  0  0
    2.2711   -0.4112   -0.4879 C   0  0  0  0  0  0  0  0  0  0  0  0
    3.5071   -0.0046   -0.9485 O   0  0  0  0  0  0  0  0  0  0  0  0
    4.1604    1.0301   -0.3006 C   0  0  0  0  0  0  0  0  0  0  0  0
    3.9668    2.3400   -0.6911 C   0  0  0  0  0  0  0  0  0  0  0  0
    4.5945    3.3703   -0.0731 C   0  0  0  0  0  0  0  0  0  0  0  0
    5.4451    3.1020    0.9688 C   0  0  0  0  0  0  0  0  0  0  0  0
    5.6597    1.8197    1.3807 C   0  0  0  0  0  0  0  0  0  0  0  0
    5.0225    0.7892    0.7514 C   0  0  0  0  0  0  0  0  0  0  0  0
    1.7361    0.2276    0.5972 C   0  0  0  0  0  0  0  0  0  0  0  0
    0.5076   -0.0922    1.1468 C   0  0  0  0  0  0  0  0  0  0  0  0
   -2.4308   -1.1741   -0.0833 N   0  0  0  0  0  0  0  0  0  0  0  0
   -2.6704    0.2064   -0.2300 C   0  0  0  0  0  0  0  0  0  0  0  0
   -1.7728    0.9926   -0.9548 C   0  0  0  0  0  0  0  0  0  0  0  0
   -1.9383    2.3370   -1.1398 C   0  0  0  0  0  0  0  0  0  0  0  0
   -3.0453    2.9357   -0.5814 C   0  0  0  0  0  0  0  0  0  0  0  0
   -3.2393    4.6542   -0.8288 Cl  0  0  0  0  0  0  0  0  0  0  0  0
   -3.9384    2.1769    0.1347 C   0  0  0  0  0  0  0  0  0  0  0  0
   -3.7890    0.8197    0.3324 C   0  0  0  0  0  0  0  0  0  0  0  0
   -2.8912   -2.1430   -0.9586 C   0  0  0  0  0  0  0  0  0  0  0  0
   -3.6673   -1.7868   -2.1082 N   0  0  0  0  0  0  0  0  0  0  0  0
   -2.6090   -3.3497   -0.7172 N   0  0  0  0  0  0  0  0  0  0  0  0
  1  2  1  0
  2  3  2  0
  3  4  1  0
  4  5  1  6
  5  6  2  0
  6  7  1  0
  7  8  2  0
  8  9  1  0
  9 10  1  0
 10 11  2  0
 11 12  1  0
 12 13  2  0
 13 14  1  0
 14 15  2  0
  8 16  1  0
 16 17  2  0
  4 18  1  0
 18 19  1  0
 19 20  2  0
 20 21  1  0
 21 22  2  0
 22 23  1  0
 22 24  1  0
 24 25  2  0
 18 26  1  0
 26 27  1  0
 26 28  2  0
 28  2  1  0
 17  5  1  0
 25 19  1  0
 15 10  1  0
M  END
>  <zinc_id>  (817) 
ZINC000013559308

>  <ortholog_name>  (817) 
DRTS_PLAFK

>  <gene_name>  (817) 
DRTS_PLAFK

>  <affinity>  (817) 
7.40

>  <chembldocid>  (817) 
17662

>  <title>  (817) 
None

>  <reference.pubmed_id>  (817) 
14736247

>  <reference.doi>  (817) 
None

>  <reference.chembl_id>  (817) 
CHEMBL1138835

>  <reference.journal>  (817) 
J. Med. Chem.

>  <reference.year>  (817) 
2004

$$$$

     RDKit          3D

 28 31  0  0  0  0  0  0  0  0999 V2000
   -1.6454   -5.2199    0.4760 N   0  0  0  0  0  0  0  0  0  0  0  0
   -1.8744   -3.8268    0.3478 C   0  0  0  0  0  0  0  0  0  0  0  0
   -1.4465   -3.0270    1.1449 N   0  0  0  0  0  0  0  0  0  0  0  0
   -1.6023   -1.5050    1.1520 C   0  0  1  0  0  0  0  0  0  0  0  0
   -0.1768   -1.1068    0.5437 C   0  0  0  0  0  0  0  0  0  0  0  0
    0.3263   -1.7366   -0.5084 C   0  0  0  0  0  0  0  0  0  0  0  0
    1.5401   -1.4178   -1.0484 C   0  0  0  0  0  0  0  0  0  0  0  0
    2.2711   -0.4112   -0.4879 C   0  0  0  0  0  0  0  0  0  0  0  0
    3.5071   -0.0046   -0.9485 O   0  0  0  0  0  0  0  0  0  0  0  0
    4.1604    1.0301   -0.3006 C   0  0  0  0  0  0  0  0  0  0  0  0
    3.9668    2.3400   -0.6911 C   0  0  0  0  0  0  0  0  0  0  0  0
    4.5945    3.3703   -0.0731 C   0  0  0  0  0  0  0  0  0  0  0  0
    5.4451    3.1020    0.9688 C   0  0  0  0  0  0  0  0  0  0  0  0
    5.6597    1.8197    1.3807 C   0  0  0  0  0  0  0  0  0  0  0  0
    5.0225    0.7892    0.7514 C   0  0  0  0  0  0  0  0  0  0  0  0
    1.7361    0.2276    0.5972 C   0  0  0  0  0  0  0  0  0  0  0  0
    0.5076   -0.0922    1.1468 C   0  0  0  0  0  0  0  0  0  0  0  0
   -2.4308   -1.1741   -0.0833 N   0  0  0  0  0  0  0  0  0  0  0  0
   -2.6704    0.2064   -0.2300 C   0  0  0  0  0  0  0  0  0  0  0  0
   -1.7728    0.9926   -0.9548 C   0  0  0  0  0  0  0  0  0  0  0  0
   -1.9383    2.3370   -1.1398 C   0  0  0  0  0  0  0  0  0  0  0  0
   -3.0453    2.9357   -0.5814 C   0  0  0  0  0  0  0  0  0  0  0  0
   -3.2393    4.6542   -0.8288 Cl  0  0  0  0  0  0  0  0  0  0  0  0
   -3.9384    2.1769    0.1347 C   0  0  0  0  0  0  0  0  0  0  0  0
   -3.7890    0.8197    0.3324 C   0  0  0  0  0  0  0  0  0  0  0  0
   -2.8912   -2.1430   -0.9586 C   0  0  0  0  0  0  0  0  0  0  0  0
   -3.6673   -1.7868   -2.1082 N   0  0  0  0  0  0  0  0  0  0  0  0
   -2.6090   -3.3497   -0.7172 N   0  0  0  0  0  0  0  0  0  0  0  0
  1  2  1  0
  2  3  2  0
  3  4  1  0
  4  5  1  6
  5  6  2  0
  6  7  1  0
  7  8  2  0
  8  9  1  0
  9 10  1  0
 10 11  2  0
 11 12  1  0
 12 13  2  0
 13 14  1  0
 14 15  2  0
  8 16  1  0
 16 17  2  0
  4 18  1  0
 18 19  1  0
 19 20  2  0
 20 21  1  0
 21 22  2  0
 22 23  1  0
 22 24  1  0
 24 25  2  0
 18 26  1  0
 26 27  1  0
 26 28  2  0
 28  2  1  0
 17  5  1  0
 25 19  1  0
 15 10  1  0
M  END
>  <zinc_id>  (818) 
ZINC000013559308

>  <ortholog_name>  (818) 
DRTS_PLAFK

>  <gene_name>  (818) 
DRTS_PLAFK

>  <affinity>  (818) 
5.32

>  <chembldocid>  (818) 
17662

>  <title>  (818) 
None

>  <reference.pubmed_id>  (818) 
14736247

>  <reference.doi>  (818) 
None

>  <reference.chembl_id>  (818) 
CHEMBL1138835

>  <reference.journal>  (818) 
J. Med. Chem.

>  <reference.year>  (818) 
2004

$$$$

     RDKit          3D

 28 31  0  0  0  0  0  0  0  0999 V2000
   -1.6454   -5.2199    0.4760 N   0  0  0  0  0  0  0  0  0  0  0  0
   -1.8744   -3.8268    0.3478 C   0  0  0  0  0  0  0  0  0  0  0  0
   -1.4465   -3.0270    1.1449 N   0  0  0  0  0  0  0  0  0  0  0  0
   -1.6023   -1.5050    1.1520 C   0  0  1  0  0  0  0  0  0  0  0  0
   -0.1768   -1.1068    0.5437 C   0  0  0  0  0  0  0  0  0  0  0  0
    0.3263   -1.7366   -0.5084 C   0  0  0  0  0  0  0  0  0  0  0  0
    1.5401   -1.4178   -1.0484 C   0  0  0  0  0  0  0  0  0  0  0  0
    2.2711   -0.4112   -0.4879 C   0  0  0  0  0  0  0  0  0  0  0  0
    3.5071   -0.0046   -0.9485 O   0  0  0  0  0  0  0  0  0  0  0  0
    4.1604    1.0301   -0.3006 C   0  0  0  0  0  0  0  0  0  0  0  0
    3.9668    2.3400   -0.6911 C   0  0  0  0  0  0  0  0  0  0  0  0
    4.5945    3.3703   -0.0731 C   0  0  0  0  0  0  0  0  0  0  0  0
    5.4451    3.1020    0.9688 C   0  0  0  0  0  0  0  0  0  0  0  0
    5.6597    1.8197    1.3807 C   0  0  0  0  0  0  0  0  0  0  0  0
    5.0225    0.7892    0.7514 C   0  0  0  0  0  0  0  0  0  0  0  0
    1.7361    0.2276    0.5972 C   0  0  0  0  0  0  0  0  0  0  0  0
    0.5076   -0.0922    1.1468 C   0  0  0  0  0  0  0  0  0  0  0  0
   -2.4308   -1.1741   -0.0833 N   0  0  0  0  0  0  0  0  0  0  0  0
   -2.6704    0.2064   -0.2300 C   0  0  0  0  0  0  0  0  0  0  0  0
   -1.7728    0.9926   -0.9548 C   0  0  0  0  0  0  0  0  0  0  0  0
   -1.9383    2.3370   -1.1398 C   0  0  0  0  0  0  0  0  0  0  0  0
   -3.0453    2.9357   -0.5814 C   0  0  0  0  0  0  0  0  0  0  0  0
   -3.2393    4.6542   -0.8288 Cl  0  0  0  0  0  0  0  0  0  0  0  0
   -3.9384    2.1769    0.1347 C   0  0  0  0  0  0  0  0  0  0  0  0
   -3.7890    0.8197    0.3324 C   0  0  0  0  0  0  0  0  0  0  0  0
   -2.8912   -2.1430   -0.9586 C   0  0  0  0  0  0  0  0  0  0  0  0
   -3.6673   -1.7868   -2.1082 N   0  0  0  0  0  0  0  0  0  0  0  0
   -2.6090   -3.3497   -0.7172 N   0  0  0  0  0  0  0  0  0  0  0  0
  1  2  1  0
  2  3  2  0
  3  4  1  0
  4  5  1  6
  5  6  2  0
  6  7  1  0
  7  8  2  0
  8  9  1  0
  9 10  1  0
 10 11  2  0
 11 12  1  0
 12 13  2  0
 13 14  1  0
 14 15  2  0
  8 16  1  0
 16 17  2  0
  4 18  1  0
 18 19  1  0
 19 20  2  0
 20 21  1  0
 21 22  2  0
 22 23  1  0
 22 24  1  0
 24 25  2  0
 18 26  1  0
 26 27  1  0
 26 28  2  0
 28  2  1  0
 17  5  1  0
 25 19  1  0
 15 10  1  0
M  END
>  <zinc_id>  (819) 
ZINC000013559308

>  <ortholog_name>  (819) 
DRTS_PLAFK

>  <gene_name>  (819) 
DRTS_PLAFK

>  <affinity>  (819) 
5.16

>  <chembldocid>  (819) 
17662

>  <title>  (819) 
None

>  <reference.pubmed_id>  (819) 
14736247

>  <reference.doi>  (819) 
None

>  <reference.chembl_id>  (819) 
CHEMBL1138835

>  <reference.journal>  (819) 
J. Med. Chem.

>  <reference.year>  (819) 
2004

$$$$

     RDKit          3D

 28 31  0  0  0  0  0  0  0  0999 V2000
   -0.7727    1.6486   -4.5080 N   0  0  0  0  0  0  0  0  0  0  0  0
   -1.3045    1.3245   -3.2032 C   0  0  0  0  0  0  0  0  0  0  0  0
   -1.2777    0.1297   -2.8763 N   0  0  0  0  0  0  0  0  0  0  0  0
   -1.7434   -0.4526   -1.6323 C   0  0  1  0  0  0  0  0  0  0  0  0
   -0.4044   -0.8428   -0.9191 C   0  0  0  0  0  0  0  0  0  0  0  0
   -0.1859   -0.5746    0.3796 C   0  0  0  0  0  0  0  0  0  0  0  0
    1.0346   -0.9415    0.9894 C   0  0  0  0  0  0  0  0  0  0  0  0
    1.9838   -1.5732    0.2303 C   0  0  0  0  0  0  0  0  0  0  0  0
    3.2127   -1.9512    0.8139 O   0  0  0  0  0  0  0  0  0  0  0  0
    4.2746   -1.0323    0.7806 C   0  0  0  0  0  0  0  0  0  0  0  0
    4.4803   -0.1132    1.7819 C   0  0  0  0  0  0  0  0  0  0  0  0
    5.5274    0.7972    1.7549 C   0  0  0  0  0  0  0  0  0  0  0  0
    6.4037    0.7949    0.6934 C   0  0  0  0  0  0  0  0  0  0  0  0
    6.2206   -0.1149   -0.3223 C   0  0  0  0  0  0  0  0  0  0  0  0
    5.1630   -1.0195   -0.2748 C   0  0  0  0  0  0  0  0  0  0  0  0
    1.7802   -1.8510   -1.0793 C   0  0  0  0  0  0  0  0  0  0  0  0
    0.5424   -1.4674   -1.6570 C   0  0  0  0  0  0  0  0  0  0  0  0
   -2.3287    0.6130   -0.7617 N   0  0  0  0  0  0  0  0  0  0  0  0
   -2.8902    0.2581    0.5031 C   0  0  0  0  0  0  0  0  0  0  0  0
   -2.9611   -0.9971    1.0326 C   0  0  0  0  0  0  0  0  0  0  0  0
   -3.5253   -1.2528    2.2715 C   0  0  0  0  0  0  0  0  0  0  0  0
   -4.0528   -0.2468    3.0494 C   0  0  0  0  0  0  0  0  0  0  0  0
   -4.7718   -0.5651    4.6259 Cl  0  0  0  0  0  0  0  0  0  0  0  0
   -3.9848    1.0231    2.5214 C   0  0  0  0  0  0  0  0  0  0  0  0
   -3.4094    1.2534    1.2670 C   0  0  0  0  0  0  0  0  0  0  0  0
   -2.2952    1.9095   -1.2421 C   0  0  0  0  0  0  0  0  0  0  0  0
   -2.8710    2.8798   -0.2957 N   0  0  0  0  0  0  0  0  0  0  0  0
   -1.8445    2.3643   -2.3631 N   0  0  0  0  0  0  0  0  0  0  0  0
  1  2  1  0
  2  3  2  0
  3  4  1  0
  4  5  1  6
  5  6  2  0
  6  7  1  0
  7  8  2  0
  8  9  1  0
  9 10  1  0
 10 11  2  0
 11 12  1  0
 12 13  2  0
 13 14  1  0
 14 15  2  0
  8 16  1  0
 16 17  2  0
  4 18  1  0
 18 19  1  0
 19 20  2  0
 20 21  1  0
 21 22  2  0
 22 23  1  0
 22 24  1  0
 24 25  2  0
 18 26  1  0
 26 27  1  0
 26 28  2  0
 28  2  1  0
 17  5  1  0
 25 19  1  0
 15 10  1  0
M  END
>  <zinc_id>  (820) 
ZINC000013559309

>  <ortholog_name>  (820) 
DRTS_PLAFK

>  <gene_name>  (820) 
DRTS_PLAFK

>  <affinity>  (820) 
9.40

>  <chembldocid>  (820) 
17662

>  <title>  (820) 
None

>  <reference.pubmed_id>  (820) 
14736247

>  <reference.doi>  (820) 
None

>  <reference.chembl_id>  (820) 
CHEMBL1138835

>  <reference.journal>  (820) 
J. Med. Chem.

>  <reference.year>  (820) 
2004

$$$$

     RDKit          3D

 28 31  0  0  0  0  0  0  0  0999 V2000
   -0.7727    1.6486   -4.5080 N   0  0  0  0  0  0  0  0  0  0  0  0
   -1.3045    1.3245   -3.2032 C   0  0  0  0  0  0  0  0  0  0  0  0
   -1.2777    0.1297   -2.8763 N   0  0  0  0  0  0  0  0  0  0  0  0
   -1.7434   -0.4526   -1.6323 C   0  0  1  0  0  0  0  0  0  0  0  0
   -0.4044   -0.8428   -0.9191 C   0  0  0  0  0  0  0  0  0  0  0  0
   -0.1859   -0.5746    0.3796 C   0  0  0  0  0  0  0  0  0  0  0  0
    1.0346   -0.9415    0.9894 C   0  0  0  0  0  0  0  0  0  0  0  0
    1.9838   -1.5732    0.2303 C   0  0  0  0  0  0  0  0  0  0  0  0
    3.2127   -1.9512    0.8139 O   0  0  0  0  0  0  0  0  0  0  0  0
    4.2746   -1.0323    0.7806 C   0  0  0  0  0  0  0  0  0  0  0  0
    4.4803   -0.1132    1.7819 C   0  0  0  0  0  0  0  0  0  0  0  0
    5.5274    0.7972    1.7549 C   0  0  0  0  0  0  0  0  0  0  0  0
    6.4037    0.7949    0.6934 C   0  0  0  0  0  0  0  0  0  0  0  0
    6.2206   -0.1149   -0.3223 C   0  0  0  0  0  0  0  0  0  0  0  0
    5.1630   -1.0195   -0.2748 C   0  0  0  0  0  0  0  0  0  0  0  0
    1.7802   -1.8510   -1.0793 C   0  0  0  0  0  0  0  0  0  0  0  0
    0.5424   -1.4674   -1.6570 C   0  0  0  0  0  0  0  0  0  0  0  0
   -2.3287    0.6130   -0.7617 N   0  0  0  0  0  0  0  0  0  0  0  0
   -2.8902    0.2581    0.5031 C   0  0  0  0  0  0  0  0  0  0  0  0
   -2.9611   -0.9971    1.0326 C   0  0  0  0  0  0  0  0  0  0  0  0
   -3.5253   -1.2528    2.2715 C   0  0  0  0  0  0  0  0  0  0  0  0
   -4.0528   -0.2468    3.0494 C   0  0  0  0  0  0  0  0  0  0  0  0
   -4.7718   -0.5651    4.6259 Cl  0  0  0  0  0  0  0  0  0  0  0  0
   -3.9848    1.0231    2.5214 C   0  0  0  0  0  0  0  0  0  0  0  0
   -3.4094    1.2534    1.2670 C   0  0  0  0  0  0  0  0  0  0  0  0
   -2.2952    1.9095   -1.2421 C   0  0  0  0  0  0  0  0  0  0  0  0
   -2.8710    2.8798   -0.2957 N   0  0  0  0  0  0  0  0  0  0  0  0
   -1.8445    2.3643   -2.3631 N   0  0  0  0  0  0  0  0  0  0  0  0
  1  2  1  0
  2  3  2  0
  3  4  1  0
  4  5  1  6
  5  6  2  0
  6  7  1  0
  7  8  2  0
  8  9  1  0
  9 10  1  0
 10 11  2  0
 11 12  1  0
 12 13  2  0
 13 14  1  0
 14 15  2  0
  8 16  1  0
 16 17  2  0
  4 18  1  0
 18 19  1  0
 19 20  2  0
 20 21  1  0
 21 22  2  0
 22 23  1  0
 22 24  1  0
 24 25  2  0
 18 26  1  0
 26 27  1  0
 26 28  2  0
 28  2  1  0
 17  5  1  0
 25 19  1  0
 15 10  1  0
M  END
>  <zinc_id>  (821) 
ZINC000013559309

>  <ortholog_name>  (821) 
DRTS_PLAFK

>  <gene_name>  (821) 
DRTS_PLAFK

>  <affinity>  (821) 
6.92

>  <chembldocid>  (821) 
17662

>  <title>  (821) 
None

>  <reference.pubmed_id>  (821) 
14736247

>  <reference.doi>  (821) 
None

>  <reference.chembl_id>  (821) 
CHEMBL1138835

>  <reference.journal>  (821) 
J. Med. Chem.

>  <reference.year>  (821) 
2004

$$$$

     RDKit          3D

 28 31  0  0  0  0  0  0  0  0999 V2000
   -0.7727    1.6486   -4.5080 N   0  0  0  0  0  0  0  0  0  0  0  0
   -1.3045    1.3245   -3.2032 C   0  0  0  0  0  0  0  0  0  0  0  0
   -1.2777    0.1297   -2.8763 N   0  0  0  0  0  0  0  0  0  0  0  0
   -1.7434   -0.4526   -1.6323 C   0  0  1  0  0  0  0  0  0  0  0  0
   -0.4044   -0.8428   -0.9191 C   0  0  0  0  0  0  0  0  0  0  0  0
   -0.1859   -0.5746    0.3796 C   0  0  0  0  0  0  0  0  0  0  0  0
    1.0346   -0.9415    0.9894 C   0  0  0  0  0  0  0  0  0  0  0  0
    1.9838   -1.5732    0.2303 C   0  0  0  0  0  0  0  0  0  0  0  0
    3.2127   -1.9512    0.8139 O   0  0  0  0  0  0  0  0  0  0  0  0
    4.2746   -1.0323    0.7806 C   0  0  0  0  0  0  0  0  0  0  0  0
    4.4803   -0.1132    1.7819 C   0  0  0  0  0  0  0  0  0  0  0  0
    5.5274    0.7972    1.7549 C   0  0  0  0  0  0  0  0  0  0  0  0
    6.4037    0.7949    0.6934 C   0  0  0  0  0  0  0  0  0  0  0  0
    6.2206   -0.1149   -0.3223 C   0  0  0  0  0  0  0  0  0  0  0  0
    5.1630   -1.0195   -0.2748 C   0  0  0  0  0  0  0  0  0  0  0  0
    1.7802   -1.8510   -1.0793 C   0  0  0  0  0  0  0  0  0  0  0  0
    0.5424   -1.4674   -1.6570 C   0  0  0  0  0  0  0  0  0  0  0  0
   -2.3287    0.6130   -0.7617 N   0  0  0  0  0  0  0  0  0  0  0  0
   -2.8902    0.2581    0.5031 C   0  0  0  0  0  0  0  0  0  0  0  0
   -2.9611   -0.9971    1.0326 C   0  0  0  0  0  0  0  0  0  0  0  0
   -3.5253   -1.2528    2.2715 C   0  0  0  0  0  0  0  0  0  0  0  0
   -4.0528   -0.2468    3.0494 C   0  0  0  0  0  0  0  0  0  0  0  0
   -4.7718   -0.5651    4.6259 Cl  0  0  0  0  0  0  0  0  0  0  0  0
   -3.9848    1.0231    2.5214 C   0  0  0  0  0  0  0  0  0  0  0  0
   -3.4094    1.2534    1.2670 C   0  0  0  0  0  0  0  0  0  0  0  0
   -2.2952    1.9095   -1.2421 C   0  0  0  0  0  0  0  0  0  0  0  0
   -2.8710    2.8798   -0.2957 N   0  0  0  0  0  0  0  0  0  0  0  0
   -1.8445    2.3643   -2.3631 N   0  0  0  0  0  0  0  0  0  0  0  0
  1  2  1  0
  2  3  2  0
  3  4  1  0
  4  5  1  6
  5  6  2  0
  6  7  1  0
  7  8  2  0
  8  9  1  0
  9 10  1  0
 10 11  2  0
 11 12  1  0
 12 13  2  0
 13 14  1  0
 14 15  2  0
  8 16  1  0
 16 17  2  0
  4 18  1  0
 18 19  1  0
 19 20  2  0
 20 21  1  0
 21 22  2  0
 22 23  1  0
 22 24  1  0
 24 25  2  0
 18 26  1  0
 26 27  1  0
 26 28  2  0
 28  2  1  0
 17  5  1  0
 25 19  1  0
 15 10  1  0
M  END
>  <zinc_id>  (822) 
ZINC000013559309

>  <ortholog_name>  (822) 
DRTS_PLAFK

>  <gene_name>  (822) 
DRTS_PLAFK

>  <affinity>  (822) 
6.84

>  <chembldocid>  (822) 
17662

>  <title>  (822) 
None

>  <reference.pubmed_id>  (822) 
14736247

>  <reference.doi>  (822) 
None

>  <reference.chembl_id>  (822) 
CHEMBL1138835

>  <reference.journal>  (822) 
J. Med. Chem.

>  <reference.year>  (822) 
2004

$$$$

     RDKit          3D

 28 31  0  0  0  0  0  0  0  0999 V2000
   -0.7727    1.6486   -4.5080 N   0  0  0  0  0  0  0  0  0  0  0  0
   -1.3045    1.3245   -3.2032 C   0  0  0  0  0  0  0  0  0  0  0  0
   -1.2777    0.1297   -2.8763 N   0  0  0  0  0  0  0  0  0  0  0  0
   -1.7434   -0.4526   -1.6323 C   0  0  1  0  0  0  0  0  0  0  0  0
   -0.4044   -0.8428   -0.9191 C   0  0  0  0  0  0  0  0  0  0  0  0
   -0.1859   -0.5746    0.3796 C   0  0  0  0  0  0  0  0  0  0  0  0
    1.0346   -0.9415    0.9894 C   0  0  0  0  0  0  0  0  0  0  0  0
    1.9838   -1.5732    0.2303 C   0  0  0  0  0  0  0  0  0  0  0  0
    3.2127   -1.9512    0.8139 O   0  0  0  0  0  0  0  0  0  0  0  0
    4.2746   -1.0323    0.7806 C   0  0  0  0  0  0  0  0  0  0  0  0
    4.4803   -0.1132    1.7819 C   0  0  0  0  0  0  0  0  0  0  0  0
    5.5274    0.7972    1.7549 C   0  0  0  0  0  0  0  0  0  0  0  0
    6.4037    0.7949    0.6934 C   0  0  0  0  0  0  0  0  0  0  0  0
    6.2206   -0.1149   -0.3223 C   0  0  0  0  0  0  0  0  0  0  0  0
    5.1630   -1.0195   -0.2748 C   0  0  0  0  0  0  0  0  0  0  0  0
    1.7802   -1.8510   -1.0793 C   0  0  0  0  0  0  0  0  0  0  0  0
    0.5424   -1.4674   -1.6570 C   0  0  0  0  0  0  0  0  0  0  0  0
   -2.3287    0.6130   -0.7617 N   0  0  0  0  0  0  0  0  0  0  0  0
   -2.8902    0.2581    0.5031 C   0  0  0  0  0  0  0  0  0  0  0  0
   -2.9611   -0.9971    1.0326 C   0  0  0  0  0  0  0  0  0  0  0  0
   -3.5253   -1.2528    2.2715 C   0  0  0  0  0  0  0  0  0  0  0  0
   -4.0528   -0.2468    3.0494 C   0  0  0  0  0  0  0  0  0  0  0  0
   -4.7718   -0.5651    4.6259 Cl  0  0  0  0  0  0  0  0  0  0  0  0
   -3.9848    1.0231    2.5214 C   0  0  0  0  0  0  0  0  0  0  0  0
   -3.4094    1.2534    1.2670 C   0  0  0  0  0  0  0  0  0  0  0  0
   -2.2952    1.9095   -1.2421 C   0  0  0  0  0  0  0  0  0  0  0  0
   -2.8710    2.8798   -0.2957 N   0  0  0  0  0  0  0  0  0  0  0  0
   -1.8445    2.3643   -2.3631 N   0  0  0  0  0  0  0  0  0  0  0  0
  1  2  1  0
  2  3  2  0
  3  4  1  0
  4  5  1  6
  5  6  2  0
  6  7  1  0
  7  8  2  0
  8  9  1  0
  9 10  1  0
 10 11  2  0
 11 12  1  0
 12 13  2  0
 13 14  1  0
 14 15  2  0
  8 16  1  0
 16 17  2  0
  4 18  1  0
 18 19  1  0
 19 20  2  0
 20 21  1  0
 21 22  2  0
 22 23  1  0
 22 24  1  0
 24 25  2  0
 18 26  1  0
 26 27  1  0
 26 28  2  0
 28  2  1  0
 17  5  1  0
 25 19  1  0
 15 10  1  0
M  END
>  <zinc_id>  (823) 
ZINC000013559309

>  <ortholog_name>  (823) 
DRTS_PLAFK

>  <gene_name>  (823) 
DRTS_PLAFK

>  <affinity>  (823) 
6.65

>  <chembldocid>  (823) 
17662

>  <title>  (823) 
None

>  <reference.pubmed_id>  (823) 
14736247

>  <reference.doi>  (823) 
None

>  <reference.chembl_id>  (823) 
CHEMBL1138835

>  <reference.journal>  (823) 
J. Med. Chem.

>  <reference.year>  (823) 
2004

$$$$

     RDKit          3D

 28 31  0  0  0  0  0  0  0  0999 V2000
   -0.7727    1.6486   -4.5080 N   0  0  0  0  0  0  0  0  0  0  0  0
   -1.3045    1.3245   -3.2032 C   0  0  0  0  0  0  0  0  0  0  0  0
   -1.2777    0.1297   -2.8763 N   0  0  0  0  0  0  0  0  0  0  0  0
   -1.7434   -0.4526   -1.6323 C   0  0  1  0  0  0  0  0  0  0  0  0
   -0.4044   -0.8428   -0.9191 C   0  0  0  0  0  0  0  0  0  0  0  0
   -0.1859   -0.5746    0.3796 C   0  0  0  0  0  0  0  0  0  0  0  0
    1.0346   -0.9415    0.9894 C   0  0  0  0  0  0  0  0  0  0  0  0
    1.9838   -1.5732    0.2303 C   0  0  0  0  0  0  0  0  0  0  0  0
    3.2127   -1.9512    0.8139 O   0  0  0  0  0  0  0  0  0  0  0  0
    4.2746   -1.0323    0.7806 C   0  0  0  0  0  0  0  0  0  0  0  0
    4.4803   -0.1132    1.7819 C   0  0  0  0  0  0  0  0  0  0  0  0
    5.5274    0.7972    1.7549 C   0  0  0  0  0  0  0  0  0  0  0  0
    6.4037    0.7949    0.6934 C   0  0  0  0  0  0  0  0  0  0  0  0
    6.2206   -0.1149   -0.3223 C   0  0  0  0  0  0  0  0  0  0  0  0
    5.1630   -1.0195   -0.2748 C   0  0  0  0  0  0  0  0  0  0  0  0
    1.7802   -1.8510   -1.0793 C   0  0  0  0  0  0  0  0  0  0  0  0
    0.5424   -1.4674   -1.6570 C   0  0  0  0  0  0  0  0  0  0  0  0
   -2.3287    0.6130   -0.7617 N   0  0  0  0  0  0  0  0  0  0  0  0
   -2.8902    0.2581    0.5031 C   0  0  0  0  0  0  0  0  0  0  0  0
   -2.9611   -0.9971    1.0326 C   0  0  0  0  0  0  0  0  0  0  0  0
   -3.5253   -1.2528    2.2715 C   0  0  0  0  0  0  0  0  0  0  0  0
   -4.0528   -0.2468    3.0494 C   0  0  0  0  0  0  0  0  0  0  0  0
   -4.7718   -0.5651    4.6259 Cl  0  0  0  0  0  0  0  0  0  0  0  0
   -3.9848    1.0231    2.5214 C   0  0  0  0  0  0  0  0  0  0  0  0
   -3.4094    1.2534    1.2670 C   0  0  0  0  0  0  0  0  0  0  0  0
   -2.2952    1.9095   -1.2421 C   0  0  0  0  0  0  0  0  0  0  0  0
   -2.8710    2.8798   -0.2957 N   0  0  0  0  0  0  0  0  0  0  0  0
   -1.8445    2.3643   -2.3631 N   0  0  0  0  0  0  0  0  0  0  0  0
  1  2  1  0
  2  3  2  0
  3  4  1  0
  4  5  1  6
  5  6  2  0
  6  7  1  0
  7  8  2  0
  8  9  1  0
  9 10  1  0
 10 11  2  0
 11 12  1  0
 12 13  2  0
 13 14  1  0
 14 15  2  0
  8 16  1  0
 16 17  2  0
  4 18  1  0
 18 19  1  0
 19 20  2  0
 20 21  1  0
 21 22  2  0
 22 23  1  0
 22 24  1  0
 24 25  2  0
 18 26  1  0
 26 27  1  0
 26 28  2  0
 28  2  1  0
 17  5  1  0
 25 19  1  0
 15 10  1  0
M  END
>  <zinc_id>  (824) 
ZINC000013559309

>  <ortholog_name>  (824) 
DRTS_PLAFK

>  <gene_name>  (824) 
DRTS_PLAFK

>  <affinity>  (824) 
7.53

>  <chembldocid>  (824) 
17662

>  <title>  (824) 
None

>  <reference.pubmed_id>  (824) 
14736247

>  <reference.doi>  (824) 
None

>  <reference.chembl_id>  (824) 
CHEMBL1138835

>  <reference.journal>  (824) 
J. Med. Chem.

>  <reference.year>  (824) 
2004

$$$$

     RDKit          3D

 28 31  0  0  0  0  0  0  0  0999 V2000
   -0.7727    1.6486   -4.5080 N   0  0  0  0  0  0  0  0  0  0  0  0
   -1.3045    1.3245   -3.2032 C   0  0  0  0  0  0  0  0  0  0  0  0
   -1.2777    0.1297   -2.8763 N   0  0  0  0  0  0  0  0  0  0  0  0
   -1.7434   -0.4526   -1.6323 C   0  0  1  0  0  0  0  0  0  0  0  0
   -0.4044   -0.8428   -0.9191 C   0  0  0  0  0  0  0  0  0  0  0  0
   -0.1859   -0.5746    0.3796 C   0  0  0  0  0  0  0  0  0  0  0  0
    1.0346   -0.9415    0.9894 C   0  0  0  0  0  0  0  0  0  0  0  0
    1.9838   -1.5732    0.2303 C   0  0  0  0  0  0  0  0  0  0  0  0
    3.2127   -1.9512    0.8139 O   0  0  0  0  0  0  0  0  0  0  0  0
    4.2746   -1.0323    0.7806 C   0  0  0  0  0  0  0  0  0  0  0  0
    4.4803   -0.1132    1.7819 C   0  0  0  0  0  0  0  0  0  0  0  0
    5.5274    0.7972    1.7549 C   0  0  0  0  0  0  0  0  0  0  0  0
    6.4037    0.7949    0.6934 C   0  0  0  0  0  0  0  0  0  0  0  0
    6.2206   -0.1149   -0.3223 C   0  0  0  0  0  0  0  0  0  0  0  0
    5.1630   -1.0195   -0.2748 C   0  0  0  0  0  0  0  0  0  0  0  0
    1.7802   -1.8510   -1.0793 C   0  0  0  0  0  0  0  0  0  0  0  0
    0.5424   -1.4674   -1.6570 C   0  0  0  0  0  0  0  0  0  0  0  0
   -2.3287    0.6130   -0.7617 N   0  0  0  0  0  0  0  0  0  0  0  0
   -2.8902    0.2581    0.5031 C   0  0  0  0  0  0  0  0  0  0  0  0
   -2.9611   -0.9971    1.0326 C   0  0  0  0  0  0  0  0  0  0  0  0
   -3.5253   -1.2528    2.2715 C   0  0  0  0  0  0  0  0  0  0  0  0
   -4.0528   -0.2468    3.0494 C   0  0  0  0  0  0  0  0  0  0  0  0
   -4.7718   -0.5651    4.6259 Cl  0  0  0  0  0  0  0  0  0  0  0  0
   -3.9848    1.0231    2.5214 C   0  0  0  0  0  0  0  0  0  0  0  0
   -3.4094    1.2534    1.2670 C   0  0  0  0  0  0  0  0  0  0  0  0
   -2.2952    1.9095   -1.2421 C   0  0  0  0  0  0  0  0  0  0  0  0
   -2.8710    2.8798   -0.2957 N   0  0  0  0  0  0  0  0  0  0  0  0
   -1.8445    2.3643   -2.3631 N   0  0  0  0  0  0  0  0  0  0  0  0
  1  2  1  0
  2  3  2  0
  3  4  1  0
  4  5  1  6
  5  6  2  0
  6  7  1  0
  7  8  2  0
  8  9  1  0
  9 10  1  0
 10 11  2  0
 11 12  1  0
 12 13  2  0
 13 14  1  0
 14 15  2  0
  8 16  1  0
 16 17  2  0
  4 18  1  0
 18 19  1  0
 19 20  2  0
 20 21  1  0
 21 22  2  0
 22 23  1  0
 22 24  1  0
 24 25  2  0
 18 26  1  0
 26 27  1  0
 26 28  2  0
 28  2  1  0
 17  5  1  0
 25 19  1  0
 15 10  1  0
M  END
>  <zinc_id>  (825) 
ZINC000013559309

>  <ortholog_name>  (825) 
DRTS_PLAFK

>  <gene_name>  (825) 
DRTS_PLAFK

>  <affinity>  (825) 
8.42

>  <chembldocid>  (825) 
17662

>  <title>  (825) 
None

>  <reference.pubmed_id>  (825) 
14736247

>  <reference.doi>  (825) 
None

>  <reference.chembl_id>  (825) 
CHEMBL1138835

>  <reference.journal>  (825) 
J. Med. Chem.

>  <reference.year>  (825) 
2004

$$$$

     RDKit          3D

 28 31  0  0  0  0  0  0  0  0999 V2000
   -0.7727    1.6486   -4.5080 N   0  0  0  0  0  0  0  0  0  0  0  0
   -1.3045    1.3245   -3.2032 C   0  0  0  0  0  0  0  0  0  0  0  0
   -1.2777    0.1297   -2.8763 N   0  0  0  0  0  0  0  0  0  0  0  0
   -1.7434   -0.4526   -1.6323 C   0  0  1  0  0  0  0  0  0  0  0  0
   -0.4044   -0.8428   -0.9191 C   0  0  0  0  0  0  0  0  0  0  0  0
   -0.1859   -0.5746    0.3796 C   0  0  0  0  0  0  0  0  0  0  0  0
    1.0346   -0.9415    0.9894 C   0  0  0  0  0  0  0  0  0  0  0  0
    1.9838   -1.5732    0.2303 C   0  0  0  0  0  0  0  0  0  0  0  0
    3.2127   -1.9512    0.8139 O   0  0  0  0  0  0  0  0  0  0  0  0
    4.2746   -1.0323    0.7806 C   0  0  0  0  0  0  0  0  0  0  0  0
    4.4803   -0.1132    1.7819 C   0  0  0  0  0  0  0  0  0  0  0  0
    5.5274    0.7972    1.7549 C   0  0  0  0  0  0  0  0  0  0  0  0
    6.4037    0.7949    0.6934 C   0  0  0  0  0  0  0  0  0  0  0  0
    6.2206   -0.1149   -0.3223 C   0  0  0  0  0  0  0  0  0  0  0  0
    5.1630   -1.0195   -0.2748 C   0  0  0  0  0  0  0  0  0  0  0  0
    1.7802   -1.8510   -1.0793 C   0  0  0  0  0  0  0  0  0  0  0  0
    0.5424   -1.4674   -1.6570 C   0  0  0  0  0  0  0  0  0  0  0  0
   -2.3287    0.6130   -0.7617 N   0  0  0  0  0  0  0  0  0  0  0  0
   -2.8902    0.2581    0.5031 C   0  0  0  0  0  0  0  0  0  0  0  0
   -2.9611   -0.9971    1.0326 C   0  0  0  0  0  0  0  0  0  0  0  0
   -3.5253   -1.2528    2.2715 C   0  0  0  0  0  0  0  0  0  0  0  0
   -4.0528   -0.2468    3.0494 C   0  0  0  0  0  0  0  0  0  0  0  0
   -4.7718   -0.5651    4.6259 Cl  0  0  0  0  0  0  0  0  0  0  0  0
   -3.9848    1.0231    2.5214 C   0  0  0  0  0  0  0  0  0  0  0  0
   -3.4094    1.2534    1.2670 C   0  0  0  0  0  0  0  0  0  0  0  0
   -2.2952    1.9095   -1.2421 C   0  0  0  0  0  0  0  0  0  0  0  0
   -2.8710    2.8798   -0.2957 N   0  0  0  0  0  0  0  0  0  0  0  0
   -1.8445    2.3643   -2.3631 N   0  0  0  0  0  0  0  0  0  0  0  0
  1  2  1  0
  2  3  2  0
  3  4  1  0
  4  5  1  6
  5  6  2  0
  6  7  1  0
  7  8  2  0
  8  9  1  0
  9 10  1  0
 10 11  2  0
 11 12  1  0
 12 13  2  0
 13 14  1  0
 14 15  2  0
  8 16  1  0
 16 17  2  0
  4 18  1  0
 18 19  1  0
 19 20  2  0
 20 21  1  0
 21 22  2  0
 22 23  1  0
 22 24  1  0
 24 25  2  0
 18 26  1  0
 26 27  1  0
 26 28  2  0
 28  2  1  0
 17  5  1  0
 25 19  1  0
 15 10  1  0
M  END
>  <zinc_id>  (826) 
ZINC000013559309

>  <ortholog_name>  (826) 
DRTS_PLAFK

>  <gene_name>  (826) 
DRTS_PLAFK

>  <affinity>  (826) 
5.51

>  <chembldocid>  (826) 
17662

>  <title>  (826) 
None

>  <reference.pubmed_id>  (826) 
14736247

>  <reference.doi>  (826) 
None

>  <reference.chembl_id>  (826) 
CHEMBL1138835

>  <reference.journal>  (826) 
J. Med. Chem.

>  <reference.year>  (826) 
2004

$$$$

     RDKit          3D

 28 31  0  0  0  0  0  0  0  0999 V2000
   -0.7727    1.6486   -4.5080 N   0  0  0  0  0  0  0  0  0  0  0  0
   -1.3045    1.3245   -3.2032 C   0  0  0  0  0  0  0  0  0  0  0  0
   -1.2777    0.1297   -2.8763 N   0  0  0  0  0  0  0  0  0  0  0  0
   -1.7434   -0.4526   -1.6323 C   0  0  1  0  0  0  0  0  0  0  0  0
   -0.4044   -0.8428   -0.9191 C   0  0  0  0  0  0  0  0  0  0  0  0
   -0.1859   -0.5746    0.3796 C   0  0  0  0  0  0  0  0  0  0  0  0
    1.0346   -0.9415    0.9894 C   0  0  0  0  0  0  0  0  0  0  0  0
    1.9838   -1.5732    0.2303 C   0  0  0  0  0  0  0  0  0  0  0  0
    3.2127   -1.9512    0.8139 O   0  0  0  0  0  0  0  0  0  0  0  0
    4.2746   -1.0323    0.7806 C   0  0  0  0  0  0  0  0  0  0  0  0
    4.4803   -0.1132    1.7819 C   0  0  0  0  0  0  0  0  0  0  0  0
    5.5274    0.7972    1.7549 C   0  0  0  0  0  0  0  0  0  0  0  0
    6.4037    0.7949    0.6934 C   0  0  0  0  0  0  0  0  0  0  0  0
    6.2206   -0.1149   -0.3223 C   0  0  0  0  0  0  0  0  0  0  0  0
    5.1630   -1.0195   -0.2748 C   0  0  0  0  0  0  0  0  0  0  0  0
    1.7802   -1.8510   -1.0793 C   0  0  0  0  0  0  0  0  0  0  0  0
    0.5424   -1.4674   -1.6570 C   0  0  0  0  0  0  0  0  0  0  0  0
   -2.3287    0.6130   -0.7617 N   0  0  0  0  0  0  0  0  0  0  0  0
   -2.8902    0.2581    0.5031 C   0  0  0  0  0  0  0  0  0  0  0  0
   -2.9611   -0.9971    1.0326 C   0  0  0  0  0  0  0  0  0  0  0  0
   -3.5253   -1.2528    2.2715 C   0  0  0  0  0  0  0  0  0  0  0  0
   -4.0528   -0.2468    3.0494 C   0  0  0  0  0  0  0  0  0  0  0  0
   -4.7718   -0.5651    4.6259 Cl  0  0  0  0  0  0  0  0  0  0  0  0
   -3.9848    1.0231    2.5214 C   0  0  0  0  0  0  0  0  0  0  0  0
   -3.4094    1.2534    1.2670 C   0  0  0  0  0  0  0  0  0  0  0  0
   -2.2952    1.9095   -1.2421 C   0  0  0  0  0  0  0  0  0  0  0  0
   -2.8710    2.8798   -0.2957 N   0  0  0  0  0  0  0  0  0  0  0  0
   -1.8445    2.3643   -2.3631 N   0  0  0  0  0  0  0  0  0  0  0  0
  1  2  1  0
  2  3  2  0
  3  4  1  0
  4  5  1  6
  5  6  2  0
  6  7  1  0
  7  8  2  0
  8  9  1  0
  9 10  1  0
 10 11  2  0
 11 12  1  0
 12 13  2  0
 13 14  1  0
 14 15  2  0
  8 16  1  0
 16 17  2  0
  4 18  1  0
 18 19  1  0
 19 20  2  0
 20 21  1  0
 21 22  2  0
 22 23  1  0
 22 24  1  0
 24 25  2  0
 18 26  1  0
 26 27  1  0
 26 28  2  0
 28  2  1  0
 17  5  1  0
 25 19  1  0
 15 10  1  0
M  END
>  <zinc_id>  (827) 
ZINC000013559309

>  <ortholog_name>  (827) 
DRTS_PLAFK

>  <gene_name>  (827) 
DRTS_PLAFK

>  <affinity>  (827) 
5.49

>  <chembldocid>  (827) 
17662

>  <title>  (827) 
None

>  <reference.pubmed_id>  (827) 
14736247

>  <reference.doi>  (827) 
None

>  <reference.chembl_id>  (827) 
CHEMBL1138835

>  <reference.journal>  (827) 
J. Med. Chem.

>  <reference.year>  (827) 
2004

$$$$

     RDKit          3D

 28 31  0  0  0  0  0  0  0  0999 V2000
   -0.7727    1.6486   -4.5080 N   0  0  0  0  0  0  0  0  0  0  0  0
   -1.3045    1.3245   -3.2032 C   0  0  0  0  0  0  0  0  0  0  0  0
   -1.2777    0.1297   -2.8763 N   0  0  0  0  0  0  0  0  0  0  0  0
   -1.7434   -0.4526   -1.6323 C   0  0  1  0  0  0  0  0  0  0  0  0
   -0.4044   -0.8428   -0.9191 C   0  0  0  0  0  0  0  0  0  0  0  0
   -0.1859   -0.5746    0.3796 C   0  0  0  0  0  0  0  0  0  0  0  0
    1.0346   -0.9415    0.9894 C   0  0  0  0  0  0  0  0  0  0  0  0
    1.9838   -1.5732    0.2303 C   0  0  0  0  0  0  0  0  0  0  0  0
    3.2127   -1.9512    0.8139 O   0  0  0  0  0  0  0  0  0  0  0  0
    4.2746   -1.0323    0.7806 C   0  0  0  0  0  0  0  0  0  0  0  0
    4.4803   -0.1132    1.7819 C   0  0  0  0  0  0  0  0  0  0  0  0
    5.5274    0.7972    1.7549 C   0  0  0  0  0  0  0  0  0  0  0  0
    6.4037    0.7949    0.6934 C   0  0  0  0  0  0  0  0  0  0  0  0
    6.2206   -0.1149   -0.3223 C   0  0  0  0  0  0  0  0  0  0  0  0
    5.1630   -1.0195   -0.2748 C   0  0  0  0  0  0  0  0  0  0  0  0
    1.7802   -1.8510   -1.0793 C   0  0  0  0  0  0  0  0  0  0  0  0
    0.5424   -1.4674   -1.6570 C   0  0  0  0  0  0  0  0  0  0  0  0
   -2.3287    0.6130   -0.7617 N   0  0  0  0  0  0  0  0  0  0  0  0
   -2.8902    0.2581    0.5031 C   0  0  0  0  0  0  0  0  0  0  0  0
   -2.9611   -0.9971    1.0326 C   0  0  0  0  0  0  0  0  0  0  0  0
   -3.5253   -1.2528    2.2715 C   0  0  0  0  0  0  0  0  0  0  0  0
   -4.0528   -0.2468    3.0494 C   0  0  0  0  0  0  0  0  0  0  0  0
   -4.7718   -0.5651    4.6259 Cl  0  0  0  0  0  0  0  0  0  0  0  0
   -3.9848    1.0231    2.5214 C   0  0  0  0  0  0  0  0  0  0  0  0
   -3.4094    1.2534    1.2670 C   0  0  0  0  0  0  0  0  0  0  0  0
   -2.2952    1.9095   -1.2421 C   0  0  0  0  0  0  0  0  0  0  0  0
   -2.8710    2.8798   -0.2957 N   0  0  0  0  0  0  0  0  0  0  0  0
   -1.8445    2.3643   -2.3631 N   0  0  0  0  0  0  0  0  0  0  0  0
  1  2  1  0
  2  3  2  0
  3  4  1  0
  4  5  1  6
  5  6  2  0
  6  7  1  0
  7  8  2  0
  8  9  1  0
  9 10  1  0
 10 11  2  0
 11 12  1  0
 12 13  2  0
 13 14  1  0
 14 15  2  0
  8 16  1  0
 16 17  2  0
  4 18  1  0
 18 19  1  0
 19 20  2  0
 20 21  1  0
 21 22  2  0
 22 23  1  0
 22 24  1  0
 24 25  2  0
 18 26  1  0
 26 27  1  0
 26 28  2  0
 28  2  1  0
 17  5  1  0
 25 19  1  0
 15 10  1  0
M  END
>  <zinc_id>  (828) 
ZINC000013559309

>  <ortholog_name>  (828) 
DRTS_PLAFK

>  <gene_name>  (828) 
DRTS_PLAFK

>  <affinity>  (828) 
7.40

>  <chembldocid>  (828) 
17662

>  <title>  (828) 
None

>  <reference.pubmed_id>  (828) 
14736247

>  <reference.doi>  (828) 
None

>  <reference.chembl_id>  (828) 
CHEMBL1138835

>  <reference.journal>  (828) 
J. Med. Chem.

>  <reference.year>  (828) 
2004

$$$$

     RDKit          3D

 28 31  0  0  0  0  0  0  0  0999 V2000
   -0.7727    1.6486   -4.5080 N   0  0  0  0  0  0  0  0  0  0  0  0
   -1.3045    1.3245   -3.2032 C   0  0  0  0  0  0  0  0  0  0  0  0
   -1.2777    0.1297   -2.8763 N   0  0  0  0  0  0  0  0  0  0  0  0
   -1.7434   -0.4526   -1.6323 C   0  0  1  0  0  0  0  0  0  0  0  0
   -0.4044   -0.8428   -0.9191 C   0  0  0  0  0  0  0  0  0  0  0  0
   -0.1859   -0.5746    0.3796 C   0  0  0  0  0  0  0  0  0  0  0  0
    1.0346   -0.9415    0.9894 C   0  0  0  0  0  0  0  0  0  0  0  0
    1.9838   -1.5732    0.2303 C   0  0  0  0  0  0  0  0  0  0  0  0
    3.2127   -1.9512    0.8139 O   0  0  0  0  0  0  0  0  0  0  0  0
    4.2746   -1.0323    0.7806 C   0  0  0  0  0  0  0  0  0  0  0  0
    4.4803   -0.1132    1.7819 C   0  0  0  0  0  0  0  0  0  0  0  0
    5.5274    0.7972    1.7549 C   0  0  0  0  0  0  0  0  0  0  0  0
    6.4037    0.7949    0.6934 C   0  0  0  0  0  0  0  0  0  0  0  0
    6.2206   -0.1149   -0.3223 C   0  0  0  0  0  0  0  0  0  0  0  0
    5.1630   -1.0195   -0.2748 C   0  0  0  0  0  0  0  0  0  0  0  0
    1.7802   -1.8510   -1.0793 C   0  0  0  0  0  0  0  0  0  0  0  0
    0.5424   -1.4674   -1.6570 C   0  0  0  0  0  0  0  0  0  0  0  0
   -2.3287    0.6130   -0.7617 N   0  0  0  0  0  0  0  0  0  0  0  0
   -2.8902    0.2581    0.5031 C   0  0  0  0  0  0  0  0  0  0  0  0
   -2.9611   -0.9971    1.0326 C   0  0  0  0  0  0  0  0  0  0  0  0
   -3.5253   -1.2528    2.2715 C   0  0  0  0  0  0  0  0  0  0  0  0
   -4.0528   -0.2468    3.0494 C   0  0  0  0  0  0  0  0  0  0  0  0
   -4.7718   -0.5651    4.6259 Cl  0  0  0  0  0  0  0  0  0  0  0  0
   -3.9848    1.0231    2.5214 C   0  0  0  0  0  0  0  0  0  0  0  0
   -3.4094    1.2534    1.2670 C   0  0  0  0  0  0  0  0  0  0  0  0
   -2.2952    1.9095   -1.2421 C   0  0  0  0  0  0  0  0  0  0  0  0
   -2.8710    2.8798   -0.2957 N   0  0  0  0  0  0  0  0  0  0  0  0
   -1.8445    2.3643   -2.3631 N   0  0  0  0  0  0  0  0  0  0  0  0
  1  2  1  0
  2  3  2  0
  3  4  1  0
  4  5  1  6
  5  6  2  0
  6  7  1  0
  7  8  2  0
  8  9  1  0
  9 10  1  0
 10 11  2  0
 11 12  1  0
 12 13  2  0
 13 14  1  0
 14 15  2  0
  8 16  1  0
 16 17  2  0
  4 18  1  0
 18 19  1  0
 19 20  2  0
 20 21  1  0
 21 22  2  0
 22 23  1  0
 22 24  1  0
 24 25  2  0
 18 26  1  0
 26 27  1  0
 26 28  2  0
 28  2  1  0
 17  5  1  0
 25 19  1  0
 15 10  1  0
M  END
>  <zinc_id>  (829) 
ZINC000013559309

>  <ortholog_name>  (829) 
DRTS_PLAFK

>  <gene_name>  (829) 
DRTS_PLAFK

>  <affinity>  (829) 
5.32

>  <chembldocid>  (829) 
17662

>  <title>  (829) 
None

>  <reference.pubmed_id>  (829) 
14736247

>  <reference.doi>  (829) 
None

>  <reference.chembl_id>  (829) 
CHEMBL1138835

>  <reference.journal>  (829) 
J. Med. Chem.

>  <reference.year>  (829) 
2004

$$$$

     RDKit          3D

 28 31  0  0  0  0  0  0  0  0999 V2000
   -0.7727    1.6486   -4.5080 N   0  0  0  0  0  0  0  0  0  0  0  0
   -1.3045    1.3245   -3.2032 C   0  0  0  0  0  0  0  0  0  0  0  0
   -1.2777    0.1297   -2.8763 N   0  0  0  0  0  0  0  0  0  0  0  0
   -1.7434   -0.4526   -1.6323 C   0  0  1  0  0  0  0  0  0  0  0  0
   -0.4044   -0.8428   -0.9191 C   0  0  0  0  0  0  0  0  0  0  0  0
   -0.1859   -0.5746    0.3796 C   0  0  0  0  0  0  0  0  0  0  0  0
    1.0346   -0.9415    0.9894 C   0  0  0  0  0  0  0  0  0  0  0  0
    1.9838   -1.5732    0.2303 C   0  0  0  0  0  0  0  0  0  0  0  0
    3.2127   -1.9512    0.8139 O   0  0  0  0  0  0  0  0  0  0  0  0
    4.2746   -1.0323    0.7806 C   0  0  0  0  0  0  0  0  0  0  0  0
    4.4803   -0.1132    1.7819 C   0  0  0  0  0  0  0  0  0  0  0  0
    5.5274    0.7972    1.7549 C   0  0  0  0  0  0  0  0  0  0  0  0
    6.4037    0.7949    0.6934 C   0  0  0  0  0  0  0  0  0  0  0  0
    6.2206   -0.1149   -0.3223 C   0  0  0  0  0  0  0  0  0  0  0  0
    5.1630   -1.0195   -0.2748 C   0  0  0  0  0  0  0  0  0  0  0  0
    1.7802   -1.8510   -1.0793 C   0  0  0  0  0  0  0  0  0  0  0  0
    0.5424   -1.4674   -1.6570 C   0  0  0  0  0  0  0  0  0  0  0  0
   -2.3287    0.6130   -0.7617 N   0  0  0  0  0  0  0  0  0  0  0  0
   -2.8902    0.2581    0.5031 C   0  0  0  0  0  0  0  0  0  0  0  0
   -2.9611   -0.9971    1.0326 C   0  0  0  0  0  0  0  0  0  0  0  0
   -3.5253   -1.2528    2.2715 C   0  0  0  0  0  0  0  0  0  0  0  0
   -4.0528   -0.2468    3.0494 C   0  0  0  0  0  0  0  0  0  0  0  0
   -4.7718   -0.5651    4.6259 Cl  0  0  0  0  0  0  0  0  0  0  0  0
   -3.9848    1.0231    2.5214 C   0  0  0  0  0  0  0  0  0  0  0  0
   -3.4094    1.2534    1.2670 C   0  0  0  0  0  0  0  0  0  0  0  0
   -2.2952    1.9095   -1.2421 C   0  0  0  0  0  0  0  0  0  0  0  0
   -2.8710    2.8798   -0.2957 N   0  0  0  0  0  0  0  0  0  0  0  0
   -1.8445    2.3643   -2.3631 N   0  0  0  0  0  0  0  0  0  0  0  0
  1  2  1  0
  2  3  2  0
  3  4  1  0
  4  5  1  6
  5  6  2  0
  6  7  1  0
  7  8  2  0
  8  9  1  0
  9 10  1  0
 10 11  2  0
 11 12  1  0
 12 13  2  0
 13 14  1  0
 14 15  2  0
  8 16  1  0
 16 17  2  0
  4 18  1  0
 18 19  1  0
 19 20  2  0
 20 21  1  0
 21 22  2  0
 22 23  1  0
 22 24  1  0
 24 25  2  0
 18 26  1  0
 26 27  1  0
 26 28  2  0
 28  2  1  0
 17  5  1  0
 25 19  1  0
 15 10  1  0
M  END
>  <zinc_id>  (830) 
ZINC000013559309

>  <ortholog_name>  (830) 
DRTS_PLAFK

>  <gene_name>  (830) 
DRTS_PLAFK

>  <affinity>  (830) 
5.16

>  <chembldocid>  (830) 
17662

>  <title>  (830) 
None

>  <reference.pubmed_id>  (830) 
14736247

>  <reference.doi>  (830) 
None

>  <reference.chembl_id>  (830) 
CHEMBL1138835

>  <reference.journal>  (830) 
J. Med. Chem.

>  <reference.year>  (830) 
2004

$$$$

     RDKit          3D

 28 31  0  0  0  0  0  0  0  0999 V2000
   -1.9344   -4.8296    0.5302 N   0  0  0  0  0  0  0  0  0  0  0  0
   -2.0712   -3.4183    0.3796 C   0  0  0  0  0  0  0  0  0  0  0  0
   -1.6576   -2.6526    1.1770 N   0  0  0  0  0  0  0  0  0  0  0  0
   -1.6843   -1.0943    1.2212 C   0  0  1  0  0  0  0  0  0  0  0  0
   -0.2231   -0.8575    0.5289 C   0  0  0  0  0  0  0  0  0  0  0  0
   -0.0588    0.0102   -0.4421 C   0  0  0  0  0  0  0  0  0  0  0  0
    1.1996    0.1690   -0.9798 C   0  0  0  0  0  0  0  0  0  0  0  0
    2.2659   -0.5896   -0.4854 C   0  0  0  0  0  0  0  0  0  0  0  0
    3.5481   -0.4511   -1.0083 O   0  0  0  0  0  0  0  0  0  0  0  0
    4.4676    0.4540   -0.5092 C   0  0  0  0  0  0  0  0  0  0  0  0
    4.5546    1.7346   -0.9953 C   0  0  0  0  0  0  0  0  0  0  0  0
    5.4789    2.6399   -0.4917 C   0  0  0  0  0  0  0  0  0  0  0  0
    6.3342    2.2425    0.5257 C   0  0  0  0  0  0  0  0  0  0  0  0
    6.2527    0.9521    1.0218 C   0  0  0  0  0  0  0  0  0  0  0  0
    5.3158    0.0748    0.4932 C   0  0  0  0  0  0  0  0  0  0  0  0
    2.0525   -1.4908    0.5356 C   0  0  0  0  0  0  0  0  0  0  0  0
    0.7867   -1.6389    1.0639 C   0  0  0  0  0  0  0  0  0  0  0  0
   -2.5784   -0.7597   -0.0386 N   0  0  0  0  0  0  0  0  0  0  0  0
   -2.9537    0.5882   -0.1735 C   0  0  0  0  0  0  0  0  0  0  0  0
   -4.0950    0.9950    0.5268 C   0  0  0  0  0  0  0  0  0  0  0  0
   -4.5648    2.2886    0.4607 C   0  0  0  0  0  0  0  0  0  0  0  0
   -3.9235    3.2405   -0.3045 C   0  0  0  0  0  0  0  0  0  0  0  0
   -2.8026    2.8484   -0.9947 C   0  0  0  0  0  0  0  0  0  0  0  0
   -1.9046    3.9691   -1.9993 Cl  0  0  0  0  0  0  0  0  0  0  0  0
   -2.3394    1.5508   -0.9224 C   0  0  0  0  0  0  0  0  0  0  0  0
   -2.9901   -1.7274   -0.8969 C   0  0  0  0  0  0  0  0  0  0  0  0
   -3.7088   -1.3176   -2.0549 N   0  0  0  0  0  0  0  0  0  0  0  0
   -2.7664   -2.9306   -0.7112 N   0  0  0  0  0  0  0  0  0  0  0  0
  1  2  1  0
  2  3  2  0
  3  4  1  0
  4  5  1  6
  5  6  2  0
  6  7  1  0
  7  8  2  0
  8  9  1  0
  9 10  1  0
 10 11  2  0
 11 12  1  0
 12 13  2  0
 13 14  1  0
 14 15  2  0
  8 16  1  0
 16 17  2  0
  4 18  1  0
 18 19  1  0
 19 20  2  0
 20 21  1  0
 21 22  2  0
 22 23  1  0
 23 24  1  0
 23 25  2  0
 18 26  1  0
 26 27  1  0
 26 28  2  0
 28  2  1  0
 17  5  1  0
 25 19  1  0
 15 10  1  0
M  END
>  <zinc_id>  (831) 
ZINC000013559310

>  <ortholog_name>  (831) 
DRTS_PLAFK

>  <gene_name>  (831) 
DRTS_PLAFK

>  <affinity>  (831) 
9.52

>  <chembldocid>  (831) 
17662

>  <title>  (831) 
None

>  <reference.pubmed_id>  (831) 
14736247

>  <reference.doi>  (831) 
None

>  <reference.chembl_id>  (831) 
CHEMBL1138835

>  <reference.journal>  (831) 
J. Med. Chem.

>  <reference.year>  (831) 
2004

$$$$

     RDKit          3D

 28 31  0  0  0  0  0  0  0  0999 V2000
   -1.9344   -4.8296    0.5302 N   0  0  0  0  0  0  0  0  0  0  0  0
   -2.0712   -3.4183    0.3796 C   0  0  0  0  0  0  0  0  0  0  0  0
   -1.6576   -2.6526    1.1770 N   0  0  0  0  0  0  0  0  0  0  0  0
   -1.6843   -1.0943    1.2212 C   0  0  1  0  0  0  0  0  0  0  0  0
   -0.2231   -0.8575    0.5289 C   0  0  0  0  0  0  0  0  0  0  0  0
   -0.0588    0.0102   -0.4421 C   0  0  0  0  0  0  0  0  0  0  0  0
    1.1996    0.1690   -0.9798 C   0  0  0  0  0  0  0  0  0  0  0  0
    2.2659   -0.5896   -0.4854 C   0  0  0  0  0  0  0  0  0  0  0  0
    3.5481   -0.4511   -1.0083 O   0  0  0  0  0  0  0  0  0  0  0  0
    4.4676    0.4540   -0.5092 C   0  0  0  0  0  0  0  0  0  0  0  0
    4.5546    1.7346   -0.9953 C   0  0  0  0  0  0  0  0  0  0  0  0
    5.4789    2.6399   -0.4917 C   0  0  0  0  0  0  0  0  0  0  0  0
    6.3342    2.2425    0.5257 C   0  0  0  0  0  0  0  0  0  0  0  0
    6.2527    0.9521    1.0218 C   0  0  0  0  0  0  0  0  0  0  0  0
    5.3158    0.0748    0.4932 C   0  0  0  0  0  0  0  0  0  0  0  0
    2.0525   -1.4908    0.5356 C   0  0  0  0  0  0  0  0  0  0  0  0
    0.7867   -1.6389    1.0639 C   0  0  0  0  0  0  0  0  0  0  0  0
   -2.5784   -0.7597   -0.0386 N   0  0  0  0  0  0  0  0  0  0  0  0
   -2.9537    0.5882   -0.1735 C   0  0  0  0  0  0  0  0  0  0  0  0
   -4.0950    0.9950    0.5268 C   0  0  0  0  0  0  0  0  0  0  0  0
   -4.5648    2.2886    0.4607 C   0  0  0  0  0  0  0  0  0  0  0  0
   -3.9235    3.2405   -0.3045 C   0  0  0  0  0  0  0  0  0  0  0  0
   -2.8026    2.8484   -0.9947 C   0  0  0  0  0  0  0  0  0  0  0  0
   -1.9046    3.9691   -1.9993 Cl  0  0  0  0  0  0  0  0  0  0  0  0
   -2.3394    1.5508   -0.9224 C   0  0  0  0  0  0  0  0  0  0  0  0
   -2.9901   -1.7274   -0.8969 C   0  0  0  0  0  0  0  0  0  0  0  0
   -3.7088   -1.3176   -2.0549 N   0  0  0  0  0  0  0  0  0  0  0  0
   -2.7664   -2.9306   -0.7112 N   0  0  0  0  0  0  0  0  0  0  0  0
  1  2  1  0
  2  3  2  0
  3  4  1  0
  4  5  1  6
  5  6  2  0
  6  7  1  0
  7  8  2  0
  8  9  1  0
  9 10  1  0
 10 11  2  0
 11 12  1  0
 12 13  2  0
 13 14  1  0
 14 15  2  0
  8 16  1  0
 16 17  2  0
  4 18  1  0
 18 19  1  0
 19 20  2  0
 20 21  1  0
 21 22  2  0
 22 23  1  0
 23 24  1  0
 23 25  2  0
 18 26  1  0
 26 27  1  0
 26 28  2  0
 28  2  1  0
 17  5  1  0
 25 19  1  0
 15 10  1  0
M  END
>  <zinc_id>  (832) 
ZINC000013559310

>  <ortholog_name>  (832) 
DRTS_PLAFK

>  <gene_name>  (832) 
DRTS_PLAFK

>  <affinity>  (832) 
9.15

>  <chembldocid>  (832) 
17662

>  <title>  (832) 
None

>  <reference.pubmed_id>  (832) 
14736247

>  <reference.doi>  (832) 
None

>  <reference.chembl_id>  (832) 
CHEMBL1138835

>  <reference.journal>  (832) 
J. Med. Chem.

>  <reference.year>  (832) 
2004

$$$$

     RDKit          3D

 28 31  0  0  0  0  0  0  0  0999 V2000
   -1.9344   -4.8296    0.5302 N   0  0  0  0  0  0  0  0  0  0  0  0
   -2.0712   -3.4183    0.3796 C   0  0  0  0  0  0  0  0  0  0  0  0
   -1.6576   -2.6526    1.1770 N   0  0  0  0  0  0  0  0  0  0  0  0
   -1.6843   -1.0943    1.2212 C   0  0  1  0  0  0  0  0  0  0  0  0
   -0.2231   -0.8575    0.5289 C   0  0  0  0  0  0  0  0  0  0  0  0
   -0.0588    0.0102   -0.4421 C   0  0  0  0  0  0  0  0  0  0  0  0
    1.1996    0.1690   -0.9798 C   0  0  0  0  0  0  0  0  0  0  0  0
    2.2659   -0.5896   -0.4854 C   0  0  0  0  0  0  0  0  0  0  0  0
    3.5481   -0.4511   -1.0083 O   0  0  0  0  0  0  0  0  0  0  0  0
    4.4676    0.4540   -0.5092 C   0  0  0  0  0  0  0  0  0  0  0  0
    4.5546    1.7346   -0.9953 C   0  0  0  0  0  0  0  0  0  0  0  0
    5.4789    2.6399   -0.4917 C   0  0  0  0  0  0  0  0  0  0  0  0
    6.3342    2.2425    0.5257 C   0  0  0  0  0  0  0  0  0  0  0  0
    6.2527    0.9521    1.0218 C   0  0  0  0  0  0  0  0  0  0  0  0
    5.3158    0.0748    0.4932 C   0  0  0  0  0  0  0  0  0  0  0  0
    2.0525   -1.4908    0.5356 C   0  0  0  0  0  0  0  0  0  0  0  0
    0.7867   -1.6389    1.0639 C   0  0  0  0  0  0  0  0  0  0  0  0
   -2.5784   -0.7597   -0.0386 N   0  0  0  0  0  0  0  0  0  0  0  0
   -2.9537    0.5882   -0.1735 C   0  0  0  0  0  0  0  0  0  0  0  0
   -4.0950    0.9950    0.5268 C   0  0  0  0  0  0  0  0  0  0  0  0
   -4.5648    2.2886    0.4607 C   0  0  0  0  0  0  0  0  0  0  0  0
   -3.9235    3.2405   -0.3045 C   0  0  0  0  0  0  0  0  0  0  0  0
   -2.8026    2.8484   -0.9947 C   0  0  0  0  0  0  0  0  0  0  0  0
   -1.9046    3.9691   -1.9993 Cl  0  0  0  0  0  0  0  0  0  0  0  0
   -2.3394    1.5508   -0.9224 C   0  0  0  0  0  0  0  0  0  0  0  0
   -2.9901   -1.7274   -0.8969 C   0  0  0  0  0  0  0  0  0  0  0  0
   -3.7088   -1.3176   -2.0549 N   0  0  0  0  0  0  0  0  0  0  0  0
   -2.7664   -2.9306   -0.7112 N   0  0  0  0  0  0  0  0  0  0  0  0
  1  2  1  0
  2  3  2  0
  3  4  1  0
  4  5  1  6
  5  6  2  0
  6  7  1  0
  7  8  2  0
  8  9  1  0
  9 10  1  0
 10 11  2  0
 11 12  1  0
 12 13  2  0
 13 14  1  0
 14 15  2  0
  8 16  1  0
 16 17  2  0
  4 18  1  0
 18 19  1  0
 19 20  2  0
 20 21  1  0
 21 22  2  0
 22 23  1  0
 23 24  1  0
 23 25  2  0
 18 26  1  0
 26 27  1  0
 26 28  2  0
 28  2  1  0
 17  5  1  0
 25 19  1  0
 15 10  1  0
M  END
>  <zinc_id>  (833) 
ZINC000013559310

>  <ortholog_name>  (833) 
DRTS_PLAFK

>  <gene_name>  (833) 
DRTS_PLAFK

>  <affinity>  (833) 
9.05

>  <chembldocid>  (833) 
17662

>  <title>  (833) 
None

>  <reference.pubmed_id>  (833) 
14736247

>  <reference.doi>  (833) 
None

>  <reference.chembl_id>  (833) 
CHEMBL1138835

>  <reference.journal>  (833) 
J. Med. Chem.

>  <reference.year>  (833) 
2004

$$$$

     RDKit          3D

 28 31  0  0  0  0  0  0  0  0999 V2000
   -1.9344   -4.8296    0.5302 N   0  0  0  0  0  0  0  0  0  0  0  0
   -2.0712   -3.4183    0.3796 C   0  0  0  0  0  0  0  0  0  0  0  0
   -1.6576   -2.6526    1.1770 N   0  0  0  0  0  0  0  0  0  0  0  0
   -1.6843   -1.0943    1.2212 C   0  0  1  0  0  0  0  0  0  0  0  0
   -0.2231   -0.8575    0.5289 C   0  0  0  0  0  0  0  0  0  0  0  0
   -0.0588    0.0102   -0.4421 C   0  0  0  0  0  0  0  0  0  0  0  0
    1.1996    0.1690   -0.9798 C   0  0  0  0  0  0  0  0  0  0  0  0
    2.2659   -0.5896   -0.4854 C   0  0  0  0  0  0  0  0  0  0  0  0
    3.5481   -0.4511   -1.0083 O   0  0  0  0  0  0  0  0  0  0  0  0
    4.4676    0.4540   -0.5092 C   0  0  0  0  0  0  0  0  0  0  0  0
    4.5546    1.7346   -0.9953 C   0  0  0  0  0  0  0  0  0  0  0  0
    5.4789    2.6399   -0.4917 C   0  0  0  0  0  0  0  0  0  0  0  0
    6.3342    2.2425    0.5257 C   0  0  0  0  0  0  0  0  0  0  0  0
    6.2527    0.9521    1.0218 C   0  0  0  0  0  0  0  0  0  0  0  0
    5.3158    0.0748    0.4932 C   0  0  0  0  0  0  0  0  0  0  0  0
    2.0525   -1.4908    0.5356 C   0  0  0  0  0  0  0  0  0  0  0  0
    0.7867   -1.6389    1.0639 C   0  0  0  0  0  0  0  0  0  0  0  0
   -2.5784   -0.7597   -0.0386 N   0  0  0  0  0  0  0  0  0  0  0  0
   -2.9537    0.5882   -0.1735 C   0  0  0  0  0  0  0  0  0  0  0  0
   -4.0950    0.9950    0.5268 C   0  0  0  0  0  0  0  0  0  0  0  0
   -4.5648    2.2886    0.4607 C   0  0  0  0  0  0  0  0  0  0  0  0
   -3.9235    3.2405   -0.3045 C   0  0  0  0  0  0  0  0  0  0  0  0
   -2.8026    2.8484   -0.9947 C   0  0  0  0  0  0  0  0  0  0  0  0
   -1.9046    3.9691   -1.9993 Cl  0  0  0  0  0  0  0  0  0  0  0  0
   -2.3394    1.5508   -0.9224 C   0  0  0  0  0  0  0  0  0  0  0  0
   -2.9901   -1.7274   -0.8969 C   0  0  0  0  0  0  0  0  0  0  0  0
   -3.7088   -1.3176   -2.0549 N   0  0  0  0  0  0  0  0  0  0  0  0
   -2.7664   -2.9306   -0.7112 N   0  0  0  0  0  0  0  0  0  0  0  0
  1  2  1  0
  2  3  2  0
  3  4  1  0
  4  5  1  6
  5  6  2  0
  6  7  1  0
  7  8  2  0
  8  9  1  0
  9 10  1  0
 10 11  2  0
 11 12  1  0
 12 13  2  0
 13 14  1  0
 14 15  2  0
  8 16  1  0
 16 17  2  0
  4 18  1  0
 18 19  1  0
 19 20  2  0
 20 21  1  0
 21 22  2  0
 22 23  1  0
 23 24  1  0
 23 25  2  0
 18 26  1  0
 26 27  1  0
 26 28  2  0
 28  2  1  0
 17  5  1  0
 25 19  1  0
 15 10  1  0
M  END
>  <zinc_id>  (834) 
ZINC000013559310

>  <ortholog_name>  (834) 
DRTS_PLAFK

>  <gene_name>  (834) 
DRTS_PLAFK

>  <affinity>  (834) 
8.89

>  <chembldocid>  (834) 
17662

>  <title>  (834) 
None

>  <reference.pubmed_id>  (834) 
14736247

>  <reference.doi>  (834) 
None

>  <reference.chembl_id>  (834) 
CHEMBL1138835

>  <reference.journal>  (834) 
J. Med. Chem.

>  <reference.year>  (834) 
2004

$$$$

     RDKit          3D

 28 31  0  0  0  0  0  0  0  0999 V2000
   -1.9344   -4.8296    0.5302 N   0  0  0  0  0  0  0  0  0  0  0  0
   -2.0712   -3.4183    0.3796 C   0  0  0  0  0  0  0  0  0  0  0  0
   -1.6576   -2.6526    1.1770 N   0  0  0  0  0  0  0  0  0  0  0  0
   -1.6843   -1.0943    1.2212 C   0  0  1  0  0  0  0  0  0  0  0  0
   -0.2231   -0.8575    0.5289 C   0  0  0  0  0  0  0  0  0  0  0  0
   -0.0588    0.0102   -0.4421 C   0  0  0  0  0  0  0  0  0  0  0  0
    1.1996    0.1690   -0.9798 C   0  0  0  0  0  0  0  0  0  0  0  0
    2.2659   -0.5896   -0.4854 C   0  0  0  0  0  0  0  0  0  0  0  0
    3.5481   -0.4511   -1.0083 O   0  0  0  0  0  0  0  0  0  0  0  0
    4.4676    0.4540   -0.5092 C   0  0  0  0  0  0  0  0  0  0  0  0
    4.5546    1.7346   -0.9953 C   0  0  0  0  0  0  0  0  0  0  0  0
    5.4789    2.6399   -0.4917 C   0  0  0  0  0  0  0  0  0  0  0  0
    6.3342    2.2425    0.5257 C   0  0  0  0  0  0  0  0  0  0  0  0
    6.2527    0.9521    1.0218 C   0  0  0  0  0  0  0  0  0  0  0  0
    5.3158    0.0748    0.4932 C   0  0  0  0  0  0  0  0  0  0  0  0
    2.0525   -1.4908    0.5356 C   0  0  0  0  0  0  0  0  0  0  0  0
    0.7867   -1.6389    1.0639 C   0  0  0  0  0  0  0  0  0  0  0  0
   -2.5784   -0.7597   -0.0386 N   0  0  0  0  0  0  0  0  0  0  0  0
   -2.9537    0.5882   -0.1735 C   0  0  0  0  0  0  0  0  0  0  0  0
   -4.0950    0.9950    0.5268 C   0  0  0  0  0  0  0  0  0  0  0  0
   -4.5648    2.2886    0.4607 C   0  0  0  0  0  0  0  0  0  0  0  0
   -3.9235    3.2405   -0.3045 C   0  0  0  0  0  0  0  0  0  0  0  0
   -2.8026    2.8484   -0.9947 C   0  0  0  0  0  0  0  0  0  0  0  0
   -1.9046    3.9691   -1.9993 Cl  0  0  0  0  0  0  0  0  0  0  0  0
   -2.3394    1.5508   -0.9224 C   0  0  0  0  0  0  0  0  0  0  0  0
   -2.9901   -1.7274   -0.8969 C   0  0  0  0  0  0  0  0  0  0  0  0
   -3.7088   -1.3176   -2.0549 N   0  0  0  0  0  0  0  0  0  0  0  0
   -2.7664   -2.9306   -0.7112 N   0  0  0  0  0  0  0  0  0  0  0  0
  1  2  1  0
  2  3  2  0
  3  4  1  0
  4  5  1  6
  5  6  2  0
  6  7  1  0
  7  8  2  0
  8  9  1  0
  9 10  1  0
 10 11  2  0
 11 12  1  0
 12 13  2  0
 13 14  1  0
 14 15  2  0
  8 16  1  0
 16 17  2  0
  4 18  1  0
 18 19  1  0
 19 20  2  0
 20 21  1  0
 21 22  2  0
 22 23  1  0
 23 24  1  0
 23 25  2  0
 18 26  1  0
 26 27  1  0
 26 28  2  0
 28  2  1  0
 17  5  1  0
 25 19  1  0
 15 10  1  0
M  END
>  <zinc_id>  (835) 
ZINC000013559310

>  <ortholog_name>  (835) 
DRTS_PLAFK

>  <gene_name>  (835) 
DRTS_PLAFK

>  <affinity>  (835) 
8.57

>  <chembldocid>  (835) 
17662

>  <title>  (835) 
None

>  <reference.pubmed_id>  (835) 
14736247

>  <reference.doi>  (835) 
None

>  <reference.chembl_id>  (835) 
CHEMBL1138835

>  <reference.journal>  (835) 
J. Med. Chem.

>  <reference.year>  (835) 
2004

$$$$

     RDKit          3D

 28 31  0  0  0  0  0  0  0  0999 V2000
   -1.9344   -4.8296    0.5302 N   0  0  0  0  0  0  0  0  0  0  0  0
   -2.0712   -3.4183    0.3796 C   0  0  0  0  0  0  0  0  0  0  0  0
   -1.6576   -2.6526    1.1770 N   0  0  0  0  0  0  0  0  0  0  0  0
   -1.6843   -1.0943    1.2212 C   0  0  1  0  0  0  0  0  0  0  0  0
   -0.2231   -0.8575    0.5289 C   0  0  0  0  0  0  0  0  0  0  0  0
   -0.0588    0.0102   -0.4421 C   0  0  0  0  0  0  0  0  0  0  0  0
    1.1996    0.1690   -0.9798 C   0  0  0  0  0  0  0  0  0  0  0  0
    2.2659   -0.5896   -0.4854 C   0  0  0  0  0  0  0  0  0  0  0  0
    3.5481   -0.4511   -1.0083 O   0  0  0  0  0  0  0  0  0  0  0  0
    4.4676    0.4540   -0.5092 C   0  0  0  0  0  0  0  0  0  0  0  0
    4.5546    1.7346   -0.9953 C   0  0  0  0  0  0  0  0  0  0  0  0
    5.4789    2.6399   -0.4917 C   0  0  0  0  0  0  0  0  0  0  0  0
    6.3342    2.2425    0.5257 C   0  0  0  0  0  0  0  0  0  0  0  0
    6.2527    0.9521    1.0218 C   0  0  0  0  0  0  0  0  0  0  0  0
    5.3158    0.0748    0.4932 C   0  0  0  0  0  0  0  0  0  0  0  0
    2.0525   -1.4908    0.5356 C   0  0  0  0  0  0  0  0  0  0  0  0
    0.7867   -1.6389    1.0639 C   0  0  0  0  0  0  0  0  0  0  0  0
   -2.5784   -0.7597   -0.0386 N   0  0  0  0  0  0  0  0  0  0  0  0
   -2.9537    0.5882   -0.1735 C   0  0  0  0  0  0  0  0  0  0  0  0
   -4.0950    0.9950    0.5268 C   0  0  0  0  0  0  0  0  0  0  0  0
   -4.5648    2.2886    0.4607 C   0  0  0  0  0  0  0  0  0  0  0  0
   -3.9235    3.2405   -0.3045 C   0  0  0  0  0  0  0  0  0  0  0  0
   -2.8026    2.8484   -0.9947 C   0  0  0  0  0  0  0  0  0  0  0  0
   -1.9046    3.9691   -1.9993 Cl  0  0  0  0  0  0  0  0  0  0  0  0
   -2.3394    1.5508   -0.9224 C   0  0  0  0  0  0  0  0  0  0  0  0
   -2.9901   -1.7274   -0.8969 C   0  0  0  0  0  0  0  0  0  0  0  0
   -3.7088   -1.3176   -2.0549 N   0  0  0  0  0  0  0  0  0  0  0  0
   -2.7664   -2.9306   -0.7112 N   0  0  0  0  0  0  0  0  0  0  0  0
  1  2  1  0
  2  3  2  0
  3  4  1  0
  4  5  1  6
  5  6  2  0
  6  7  1  0
  7  8  2  0
  8  9  1  0
  9 10  1  0
 10 11  2  0
 11 12  1  0
 12 13  2  0
 13 14  1  0
 14 15  2  0
  8 16  1  0
 16 17  2  0
  4 18  1  0
 18 19  1  0
 19 20  2  0
 20 21  1  0
 21 22  2  0
 22 23  1  0
 23 24  1  0
 23 25  2  0
 18 26  1  0
 26 27  1  0
 26 28  2  0
 28  2  1  0
 17  5  1  0
 25 19  1  0
 15 10  1  0
M  END
>  <zinc_id>  (836) 
ZINC000013559310

>  <ortholog_name>  (836) 
DRTS_PLAFK

>  <gene_name>  (836) 
DRTS_PLAFK

>  <affinity>  (836) 
5.51

>  <chembldocid>  (836) 
17662

>  <title>  (836) 
None

>  <reference.pubmed_id>  (836) 
14736247

>  <reference.doi>  (836) 
None

>  <reference.chembl_id>  (836) 
CHEMBL1138835

>  <reference.journal>  (836) 
J. Med. Chem.

>  <reference.year>  (836) 
2004

$$$$

     RDKit          3D

 28 31  0  0  0  0  0  0  0  0999 V2000
   -1.9344   -4.8296    0.5302 N   0  0  0  0  0  0  0  0  0  0  0  0
   -2.0712   -3.4183    0.3796 C   0  0  0  0  0  0  0  0  0  0  0  0
   -1.6576   -2.6526    1.1770 N   0  0  0  0  0  0  0  0  0  0  0  0
   -1.6843   -1.0943    1.2212 C   0  0  1  0  0  0  0  0  0  0  0  0
   -0.2231   -0.8575    0.5289 C   0  0  0  0  0  0  0  0  0  0  0  0
   -0.0588    0.0102   -0.4421 C   0  0  0  0  0  0  0  0  0  0  0  0
    1.1996    0.1690   -0.9798 C   0  0  0  0  0  0  0  0  0  0  0  0
    2.2659   -0.5896   -0.4854 C   0  0  0  0  0  0  0  0  0  0  0  0
    3.5481   -0.4511   -1.0083 O   0  0  0  0  0  0  0  0  0  0  0  0
    4.4676    0.4540   -0.5092 C   0  0  0  0  0  0  0  0  0  0  0  0
    4.5546    1.7346   -0.9953 C   0  0  0  0  0  0  0  0  0  0  0  0
    5.4789    2.6399   -0.4917 C   0  0  0  0  0  0  0  0  0  0  0  0
    6.3342    2.2425    0.5257 C   0  0  0  0  0  0  0  0  0  0  0  0
    6.2527    0.9521    1.0218 C   0  0  0  0  0  0  0  0  0  0  0  0
    5.3158    0.0748    0.4932 C   0  0  0  0  0  0  0  0  0  0  0  0
    2.0525   -1.4908    0.5356 C   0  0  0  0  0  0  0  0  0  0  0  0
    0.7867   -1.6389    1.0639 C   0  0  0  0  0  0  0  0  0  0  0  0
   -2.5784   -0.7597   -0.0386 N   0  0  0  0  0  0  0  0  0  0  0  0
   -2.9537    0.5882   -0.1735 C   0  0  0  0  0  0  0  0  0  0  0  0
   -4.0950    0.9950    0.5268 C   0  0  0  0  0  0  0  0  0  0  0  0
   -4.5648    2.2886    0.4607 C   0  0  0  0  0  0  0  0  0  0  0  0
   -3.9235    3.2405   -0.3045 C   0  0  0  0  0  0  0  0  0  0  0  0
   -2.8026    2.8484   -0.9947 C   0  0  0  0  0  0  0  0  0  0  0  0
   -1.9046    3.9691   -1.9993 Cl  0  0  0  0  0  0  0  0  0  0  0  0
   -2.3394    1.5508   -0.9224 C   0  0  0  0  0  0  0  0  0  0  0  0
   -2.9901   -1.7274   -0.8969 C   0  0  0  0  0  0  0  0  0  0  0  0
   -3.7088   -1.3176   -2.0549 N   0  0  0  0  0  0  0  0  0  0  0  0
   -2.7664   -2.9306   -0.7112 N   0  0  0  0  0  0  0  0  0  0  0  0
  1  2  1  0
  2  3  2  0
  3  4  1  0
  4  5  1  6
  5  6  2  0
  6  7  1  0
  7  8  2  0
  8  9  1  0
  9 10  1  0
 10 11  2  0
 11 12  1  0
 12 13  2  0
 13 14  1  0
 14 15  2  0
  8 16  1  0
 16 17  2  0
  4 18  1  0
 18 19  1  0
 19 20  2  0
 20 21  1  0
 21 22  2  0
 22 23  1  0
 23 24  1  0
 23 25  2  0
 18 26  1  0
 26 27  1  0
 26 28  2  0
 28  2  1  0
 17  5  1  0
 25 19  1  0
 15 10  1  0
M  END
>  <zinc_id>  (837) 
ZINC000013559310

>  <ortholog_name>  (837) 
DRTS_PLAFK

>  <gene_name>  (837) 
DRTS_PLAFK

>  <affinity>  (837) 
5.48

>  <chembldocid>  (837) 
17662

>  <title>  (837) 
None

>  <reference.pubmed_id>  (837) 
14736247

>  <reference.doi>  (837) 
None

>  <reference.chembl_id>  (837) 
CHEMBL1138835

>  <reference.journal>  (837) 
J. Med. Chem.

>  <reference.year>  (837) 
2004

$$$$

     RDKit          3D

 28 31  0  0  0  0  0  0  0  0999 V2000
   -1.9344   -4.8296    0.5302 N   0  0  0  0  0  0  0  0  0  0  0  0
   -2.0712   -3.4183    0.3796 C   0  0  0  0  0  0  0  0  0  0  0  0
   -1.6576   -2.6526    1.1770 N   0  0  0  0  0  0  0  0  0  0  0  0
   -1.6843   -1.0943    1.2212 C   0  0  1  0  0  0  0  0  0  0  0  0
   -0.2231   -0.8575    0.5289 C   0  0  0  0  0  0  0  0  0  0  0  0
   -0.0588    0.0102   -0.4421 C   0  0  0  0  0  0  0  0  0  0  0  0
    1.1996    0.1690   -0.9798 C   0  0  0  0  0  0  0  0  0  0  0  0
    2.2659   -0.5896   -0.4854 C   0  0  0  0  0  0  0  0  0  0  0  0
    3.5481   -0.4511   -1.0083 O   0  0  0  0  0  0  0  0  0  0  0  0
    4.4676    0.4540   -0.5092 C   0  0  0  0  0  0  0  0  0  0  0  0
    4.5546    1.7346   -0.9953 C   0  0  0  0  0  0  0  0  0  0  0  0
    5.4789    2.6399   -0.4917 C   0  0  0  0  0  0  0  0  0  0  0  0
    6.3342    2.2425    0.5257 C   0  0  0  0  0  0  0  0  0  0  0  0
    6.2527    0.9521    1.0218 C   0  0  0  0  0  0  0  0  0  0  0  0
    5.3158    0.0748    0.4932 C   0  0  0  0  0  0  0  0  0  0  0  0
    2.0525   -1.4908    0.5356 C   0  0  0  0  0  0  0  0  0  0  0  0
    0.7867   -1.6389    1.0639 C   0  0  0  0  0  0  0  0  0  0  0  0
   -2.5784   -0.7597   -0.0386 N   0  0  0  0  0  0  0  0  0  0  0  0
   -2.9537    0.5882   -0.1735 C   0  0  0  0  0  0  0  0  0  0  0  0
   -4.0950    0.9950    0.5268 C   0  0  0  0  0  0  0  0  0  0  0  0
   -4.5648    2.2886    0.4607 C   0  0  0  0  0  0  0  0  0  0  0  0
   -3.9235    3.2405   -0.3045 C   0  0  0  0  0  0  0  0  0  0  0  0
   -2.8026    2.8484   -0.9947 C   0  0  0  0  0  0  0  0  0  0  0  0
   -1.9046    3.9691   -1.9993 Cl  0  0  0  0  0  0  0  0  0  0  0  0
   -2.3394    1.5508   -0.9224 C   0  0  0  0  0  0  0  0  0  0  0  0
   -2.9901   -1.7274   -0.8969 C   0  0  0  0  0  0  0  0  0  0  0  0
   -3.7088   -1.3176   -2.0549 N   0  0  0  0  0  0  0  0  0  0  0  0
   -2.7664   -2.9306   -0.7112 N   0  0  0  0  0  0  0  0  0  0  0  0
  1  2  1  0
  2  3  2  0
  3  4  1  0
  4  5  1  6
  5  6  2  0
  6  7  1  0
  7  8  2  0
  8  9  1  0
  9 10  1  0
 10 11  2  0
 11 12  1  0
 12 13  2  0
 13 14  1  0
 14 15  2  0
  8 16  1  0
 16 17  2  0
  4 18  1  0
 18 19  1  0
 19 20  2  0
 20 21  1  0
 21 22  2  0
 22 23  1  0
 23 24  1  0
 23 25  2  0
 18 26  1  0
 26 27  1  0
 26 28  2  0
 28  2  1  0
 17  5  1  0
 25 19  1  0
 15 10  1  0
M  END
>  <zinc_id>  (838) 
ZINC000013559310

>  <ortholog_name>  (838) 
DRTS_PLAFK

>  <gene_name>  (838) 
DRTS_PLAFK

>  <affinity>  (838) 
8.40

>  <chembldocid>  (838) 
17662

>  <title>  (838) 
None

>  <reference.pubmed_id>  (838) 
14736247

>  <reference.doi>  (838) 
None

>  <reference.chembl_id>  (838) 
CHEMBL1138835

>  <reference.journal>  (838) 
J. Med. Chem.

>  <reference.year>  (838) 
2004

$$$$

     RDKit          3D

 28 31  0  0  0  0  0  0  0  0999 V2000
   -1.9344   -4.8296    0.5302 N   0  0  0  0  0  0  0  0  0  0  0  0
   -2.0712   -3.4183    0.3796 C   0  0  0  0  0  0  0  0  0  0  0  0
   -1.6576   -2.6526    1.1770 N   0  0  0  0  0  0  0  0  0  0  0  0
   -1.6843   -1.0943    1.2212 C   0  0  1  0  0  0  0  0  0  0  0  0
   -0.2231   -0.8575    0.5289 C   0  0  0  0  0  0  0  0  0  0  0  0
   -0.0588    0.0102   -0.4421 C   0  0  0  0  0  0  0  0  0  0  0  0
    1.1996    0.1690   -0.9798 C   0  0  0  0  0  0  0  0  0  0  0  0
    2.2659   -0.5896   -0.4854 C   0  0  0  0  0  0  0  0  0  0  0  0
    3.5481   -0.4511   -1.0083 O   0  0  0  0  0  0  0  0  0  0  0  0
    4.4676    0.4540   -0.5092 C   0  0  0  0  0  0  0  0  0  0  0  0
    4.5546    1.7346   -0.9953 C   0  0  0  0  0  0  0  0  0  0  0  0
    5.4789    2.6399   -0.4917 C   0  0  0  0  0  0  0  0  0  0  0  0
    6.3342    2.2425    0.5257 C   0  0  0  0  0  0  0  0  0  0  0  0
    6.2527    0.9521    1.0218 C   0  0  0  0  0  0  0  0  0  0  0  0
    5.3158    0.0748    0.4932 C   0  0  0  0  0  0  0  0  0  0  0  0
    2.0525   -1.4908    0.5356 C   0  0  0  0  0  0  0  0  0  0  0  0
    0.7867   -1.6389    1.0639 C   0  0  0  0  0  0  0  0  0  0  0  0
   -2.5784   -0.7597   -0.0386 N   0  0  0  0  0  0  0  0  0  0  0  0
   -2.9537    0.5882   -0.1735 C   0  0  0  0  0  0  0  0  0  0  0  0
   -4.0950    0.9950    0.5268 C   0  0  0  0  0  0  0  0  0  0  0  0
   -4.5648    2.2886    0.4607 C   0  0  0  0  0  0  0  0  0  0  0  0
   -3.9235    3.2405   -0.3045 C   0  0  0  0  0  0  0  0  0  0  0  0
   -2.8026    2.8484   -0.9947 C   0  0  0  0  0  0  0  0  0  0  0  0
   -1.9046    3.9691   -1.9993 Cl  0  0  0  0  0  0  0  0  0  0  0  0
   -2.3394    1.5508   -0.9224 C   0  0  0  0  0  0  0  0  0  0  0  0
   -2.9901   -1.7274   -0.8969 C   0  0  0  0  0  0  0  0  0  0  0  0
   -3.7088   -1.3176   -2.0549 N   0  0  0  0  0  0  0  0  0  0  0  0
   -2.7664   -2.9306   -0.7112 N   0  0  0  0  0  0  0  0  0  0  0  0
  1  2  1  0
  2  3  2  0
  3  4  1  0
  4  5  1  6
  5  6  2  0
  6  7  1  0
  7  8  2  0
  8  9  1  0
  9 10  1  0
 10 11  2  0
 11 12  1  0
 12 13  2  0
 13 14  1  0
 14 15  2  0
  8 16  1  0
 16 17  2  0
  4 18  1  0
 18 19  1  0
 19 20  2  0
 20 21  1  0
 21 22  2  0
 22 23  1  0
 23 24  1  0
 23 25  2  0
 18 26  1  0
 26 27  1  0
 26 28  2  0
 28  2  1  0
 17  5  1  0
 25 19  1  0
 15 10  1  0
M  END
>  <zinc_id>  (839) 
ZINC000013559310

>  <ortholog_name>  (839) 
DRTS_PLAFK

>  <gene_name>  (839) 
DRTS_PLAFK

>  <affinity>  (839) 
6.19

>  <chembldocid>  (839) 
17662

>  <title>  (839) 
None

>  <reference.pubmed_id>  (839) 
14736247

>  <reference.doi>  (839) 
None

>  <reference.chembl_id>  (839) 
CHEMBL1138835

>  <reference.journal>  (839) 
J. Med. Chem.

>  <reference.year>  (839) 
2004

$$$$

     RDKit          3D

 28 31  0  0  0  0  0  0  0  0999 V2000
   -1.9344   -4.8296    0.5302 N   0  0  0  0  0  0  0  0  0  0  0  0
   -2.0712   -3.4183    0.3796 C   0  0  0  0  0  0  0  0  0  0  0  0
   -1.6576   -2.6526    1.1770 N   0  0  0  0  0  0  0  0  0  0  0  0
   -1.6843   -1.0943    1.2212 C   0  0  1  0  0  0  0  0  0  0  0  0
   -0.2231   -0.8575    0.5289 C   0  0  0  0  0  0  0  0  0  0  0  0
   -0.0588    0.0102   -0.4421 C   0  0  0  0  0  0  0  0  0  0  0  0
    1.1996    0.1690   -0.9798 C   0  0  0  0  0  0  0  0  0  0  0  0
    2.2659   -0.5896   -0.4854 C   0  0  0  0  0  0  0  0  0  0  0  0
    3.5481   -0.4511   -1.0083 O   0  0  0  0  0  0  0  0  0  0  0  0
    4.4676    0.4540   -0.5092 C   0  0  0  0  0  0  0  0  0  0  0  0
    4.5546    1.7346   -0.9953 C   0  0  0  0  0  0  0  0  0  0  0  0
    5.4789    2.6399   -0.4917 C   0  0  0  0  0  0  0  0  0  0  0  0
    6.3342    2.2425    0.5257 C   0  0  0  0  0  0  0  0  0  0  0  0
    6.2527    0.9521    1.0218 C   0  0  0  0  0  0  0  0  0  0  0  0
    5.3158    0.0748    0.4932 C   0  0  0  0  0  0  0  0  0  0  0  0
    2.0525   -1.4908    0.5356 C   0  0  0  0  0  0  0  0  0  0  0  0
    0.7867   -1.6389    1.0639 C   0  0  0  0  0  0  0  0  0  0  0  0
   -2.5784   -0.7597   -0.0386 N   0  0  0  0  0  0  0  0  0  0  0  0
   -2.9537    0.5882   -0.1735 C   0  0  0  0  0  0  0  0  0  0  0  0
   -4.0950    0.9950    0.5268 C   0  0  0  0  0  0  0  0  0  0  0  0
   -4.5648    2.2886    0.4607 C   0  0  0  0  0  0  0  0  0  0  0  0
   -3.9235    3.2405   -0.3045 C   0  0  0  0  0  0  0  0  0  0  0  0
   -2.8026    2.8484   -0.9947 C   0  0  0  0  0  0  0  0  0  0  0  0
   -1.9046    3.9691   -1.9993 Cl  0  0  0  0  0  0  0  0  0  0  0  0
   -2.3394    1.5508   -0.9224 C   0  0  0  0  0  0  0  0  0  0  0  0
   -2.9901   -1.7274   -0.8969 C   0  0  0  0  0  0  0  0  0  0  0  0
   -3.7088   -1.3176   -2.0549 N   0  0  0  0  0  0  0  0  0  0  0  0
   -2.7664   -2.9306   -0.7112 N   0  0  0  0  0  0  0  0  0  0  0  0
  1  2  1  0
  2  3  2  0
  3  4  1  0
  4  5  1  6
  5  6  2  0
  6  7  1  0
  7  8  2  0
  8  9  1  0
  9 10  1  0
 10 11  2  0
 11 12  1  0
 12 13  2  0
 13 14  1  0
 14 15  2  0
  8 16  1  0
 16 17  2  0
  4 18  1  0
 18 19  1  0
 19 20  2  0
 20 21  1  0
 21 22  2  0
 22 23  1  0
 23 24  1  0
 23 25  2  0
 18 26  1  0
 26 27  1  0
 26 28  2  0
 28  2  1  0
 17  5  1  0
 25 19  1  0
 15 10  1  0
M  END
>  <zinc_id>  (840) 
ZINC000013559310

>  <ortholog_name>  (840) 
DRTS_PLAFK

>  <gene_name>  (840) 
DRTS_PLAFK

>  <affinity>  (840) 
6.13

>  <chembldocid>  (840) 
17662

>  <title>  (840) 
None

>  <reference.pubmed_id>  (840) 
14736247

>  <reference.doi>  (840) 
None

>  <reference.chembl_id>  (840) 
CHEMBL1138835

>  <reference.journal>  (840) 
J. Med. Chem.

>  <reference.year>  (840) 
2004

$$$$

     RDKit          3D

 28 31  0  0  0  0  0  0  0  0999 V2000
   -0.9136   -4.8025    1.5392 N   0  0  0  0  0  0  0  0  0  0  0  0
   -1.4046   -3.5208    1.1636 C   0  0  0  0  0  0  0  0  0  0  0  0
   -1.3874   -3.1501    0.0140 N   0  0  0  0  0  0  0  0  0  0  0  0
   -1.8752   -1.8065   -0.5564 C   0  0  2  0  0  0  0  0  0  0  0  0
   -0.5032   -1.0277   -0.6997 C   0  0  0  0  0  0  0  0  0  0  0  0
   -0.3254   -0.3548   -1.8759 C   0  0  0  0  0  0  0  0  0  0  0  0
    0.8749    0.3674   -2.0840 C   0  0  0  0  0  0  0  0  0  0  0  0
    1.8485    0.3903   -1.1136 C   0  0  0  0  0  0  0  0  0  0  0  0
    3.0484    1.1132   -1.3236 O   0  0  0  0  0  0  0  0  0  0  0  0
    4.0044    1.1101   -0.3191 C   0  0  0  0  0  0  0  0  0  0  0  0
    3.8455    0.4440    0.8624 C   0  0  0  0  0  0  0  0  0  0  0  0
    4.8398    0.4934    1.8005 C   0  0  0  0  0  0  0  0  0  0  0  0
    5.9861    1.2055    1.5567 C   0  0  0  0  0  0  0  0  0  0  0  0
    6.1611    1.8821    0.3709 C   0  0  0  0  0  0  0  0  0  0  0  0
    5.1656    1.8400   -0.5833 C   0  0  0  0  0  0  0  0  0  0  0  0
    1.6484   -0.2906    0.0555 C   0  0  0  0  0  0  0  0  0  0  0  0
    0.4472   -0.9936    0.2237 C   0  0  0  0  0  0  0  0  0  0  0  0
   -2.3972   -1.0366    0.7021 N   0  0  0  0  0  0  0  0  0  0  0  0
   -2.8923    0.2615    0.3066 C   0  0  0  0  0  0  0  0  0  0  0  0
   -4.2129    0.4199   -0.0486 C   0  0  0  0  0  0  0  0  0  0  0  0
   -4.7320    1.6562   -0.4369 C   0  0  0  0  0  0  0  0  0  0  0  0
   -3.8765    2.7423   -0.4587 C   0  0  0  0  0  0  0  0  0  0  0  0
   -2.5508    2.6142   -0.1088 C   0  0  0  0  0  0  0  0  0  0  0  0
   -1.5429    4.0418   -0.1659 Cl  0  0  0  0  0  0  0  0  0  0  0  0
   -2.0889    1.3715    0.2670 C   0  0  0  0  0  0  0  0  0  0  0  0
   -2.3820   -1.5226    1.9627 C   0  0  0  0  0  0  0  0  0  0  0  0
   -2.8709   -0.7696    3.0517 N   0  0  0  0  0  0  0  0  0  0  0  0
   -1.9141   -2.6782    2.1370 N   0  0  0  0  0  0  0  0  0  0  0  0
  1  2  1  0
  2  3  2  0
  3  4  1  0
  4  5  1  1
  5  6  2  0
  6  7  1  0
  7  8  2  0
  8  9  1  0
  9 10  1  0
 10 11  2  0
 11 12  1  0
 12 13  2  0
 13 14  1  0
 14 15  2  0
  8 16  1  0
 16 17  2  0
  4 18  1  0
 18 19  1  0
 19 20  2  0
 20 21  1  0
 21 22  2  0
 22 23  1  0
 23 24  1  0
 23 25  2  0
 18 26  1  0
 26 27  1  0
 26 28  2  0
 28  2  1  0
 17  5  1  0
 25 19  1  0
 15 10  1  0
M  END
>  <zinc_id>  (841) 
ZINC000013559311

>  <ortholog_name>  (841) 
DRTS_PLAFK

>  <gene_name>  (841) 
DRTS_PLAFK

>  <affinity>  (841) 
9.52

>  <chembldocid>  (841) 
17662

>  <title>  (841) 
None

>  <reference.pubmed_id>  (841) 
14736247

>  <reference.doi>  (841) 
None

>  <reference.chembl_id>  (841) 
CHEMBL1138835

>  <reference.journal>  (841) 
J. Med. Chem.

>  <reference.year>  (841) 
2004

$$$$

     RDKit          3D

 28 31  0  0  0  0  0  0  0  0999 V2000
   -0.9136   -4.8025    1.5392 N   0  0  0  0  0  0  0  0  0  0  0  0
   -1.4046   -3.5208    1.1636 C   0  0  0  0  0  0  0  0  0  0  0  0
   -1.3874   -3.1501    0.0140 N   0  0  0  0  0  0  0  0  0  0  0  0
   -1.8752   -1.8065   -0.5564 C   0  0  2  0  0  0  0  0  0  0  0  0
   -0.5032   -1.0277   -0.6997 C   0  0  0  0  0  0  0  0  0  0  0  0
   -0.3254   -0.3548   -1.8759 C   0  0  0  0  0  0  0  0  0  0  0  0
    0.8749    0.3674   -2.0840 C   0  0  0  0  0  0  0  0  0  0  0  0
    1.8485    0.3903   -1.1136 C   0  0  0  0  0  0  0  0  0  0  0  0
    3.0484    1.1132   -1.3236 O   0  0  0  0  0  0  0  0  0  0  0  0
    4.0044    1.1101   -0.3191 C   0  0  0  0  0  0  0  0  0  0  0  0
    3.8455    0.4440    0.8624 C   0  0  0  0  0  0  0  0  0  0  0  0
    4.8398    0.4934    1.8005 C   0  0  0  0  0  0  0  0  0  0  0  0
    5.9861    1.2055    1.5567 C   0  0  0  0  0  0  0  0  0  0  0  0
    6.1611    1.8821    0.3709 C   0  0  0  0  0  0  0  0  0  0  0  0
    5.1656    1.8400   -0.5833 C   0  0  0  0  0  0  0  0  0  0  0  0
    1.6484   -0.2906    0.0555 C   0  0  0  0  0  0  0  0  0  0  0  0
    0.4472   -0.9936    0.2237 C   0  0  0  0  0  0  0  0  0  0  0  0
   -2.3972   -1.0366    0.7021 N   0  0  0  0  0  0  0  0  0  0  0  0
   -2.8923    0.2615    0.3066 C   0  0  0  0  0  0  0  0  0  0  0  0
   -4.2129    0.4199   -0.0486 C   0  0  0  0  0  0  0  0  0  0  0  0
   -4.7320    1.6562   -0.4369 C   0  0  0  0  0  0  0  0  0  0  0  0
   -3.8765    2.7423   -0.4587 C   0  0  0  0  0  0  0  0  0  0  0  0
   -2.5508    2.6142   -0.1088 C   0  0  0  0  0  0  0  0  0  0  0  0
   -1.5429    4.0418   -0.1659 Cl  0  0  0  0  0  0  0  0  0  0  0  0
   -2.0889    1.3715    0.2670 C   0  0  0  0  0  0  0  0  0  0  0  0
   -2.3820   -1.5226    1.9627 C   0  0  0  0  0  0  0  0  0  0  0  0
   -2.8709   -0.7696    3.0517 N   0  0  0  0  0  0  0  0  0  0  0  0
   -1.9141   -2.6782    2.1370 N   0  0  0  0  0  0  0  0  0  0  0  0
  1  2  1  0
  2  3  2  0
  3  4  1  0
  4  5  1  1
  5  6  2  0
  6  7  1  0
  7  8  2  0
  8  9  1  0
  9 10  1  0
 10 11  2  0
 11 12  1  0
 12 13  2  0
 13 14  1  0
 14 15  2  0
  8 16  1  0
 16 17  2  0
  4 18  1  0
 18 19  1  0
 19 20  2  0
 20 21  1  0
 21 22  2  0
 22 23  1  0
 23 24  1  0
 23 25  2  0
 18 26  1  0
 26 27  1  0
 26 28  2  0
 28  2  1  0
 17  5  1  0
 25 19  1  0
 15 10  1  0
M  END
>  <zinc_id>  (842) 
ZINC000013559311

>  <ortholog_name>  (842) 
DRTS_PLAFK

>  <gene_name>  (842) 
DRTS_PLAFK

>  <affinity>  (842) 
9.15

>  <chembldocid>  (842) 
17662

>  <title>  (842) 
None

>  <reference.pubmed_id>  (842) 
14736247

>  <reference.doi>  (842) 
None

>  <reference.chembl_id>  (842) 
CHEMBL1138835

>  <reference.journal>  (842) 
J. Med. Chem.

>  <reference.year>  (842) 
2004

$$$$

     RDKit          3D

 28 31  0  0  0  0  0  0  0  0999 V2000
   -0.9136   -4.8025    1.5392 N   0  0  0  0  0  0  0  0  0  0  0  0
   -1.4046   -3.5208    1.1636 C   0  0  0  0  0  0  0  0  0  0  0  0
   -1.3874   -3.1501    0.0140 N   0  0  0  0  0  0  0  0  0  0  0  0
   -1.8752   -1.8065   -0.5564 C   0  0  2  0  0  0  0  0  0  0  0  0
   -0.5032   -1.0277   -0.6997 C   0  0  0  0  0  0  0  0  0  0  0  0
   -0.3254   -0.3548   -1.8759 C   0  0  0  0  0  0  0  0  0  0  0  0
    0.8749    0.3674   -2.0840 C   0  0  0  0  0  0  0  0  0  0  0  0
    1.8485    0.3903   -1.1136 C   0  0  0  0  0  0  0  0  0  0  0  0
    3.0484    1.1132   -1.3236 O   0  0  0  0  0  0  0  0  0  0  0  0
    4.0044    1.1101   -0.3191 C   0  0  0  0  0  0  0  0  0  0  0  0
    3.8455    0.4440    0.8624 C   0  0  0  0  0  0  0  0  0  0  0  0
    4.8398    0.4934    1.8005 C   0  0  0  0  0  0  0  0  0  0  0  0
    5.9861    1.2055    1.5567 C   0  0  0  0  0  0  0  0  0  0  0  0
    6.1611    1.8821    0.3709 C   0  0  0  0  0  0  0  0  0  0  0  0
    5.1656    1.8400   -0.5833 C   0  0  0  0  0  0  0  0  0  0  0  0
    1.6484   -0.2906    0.0555 C   0  0  0  0  0  0  0  0  0  0  0  0
    0.4472   -0.9936    0.2237 C   0  0  0  0  0  0  0  0  0  0  0  0
   -2.3972   -1.0366    0.7021 N   0  0  0  0  0  0  0  0  0  0  0  0
   -2.8923    0.2615    0.3066 C   0  0  0  0  0  0  0  0  0  0  0  0
   -4.2129    0.4199   -0.0486 C   0  0  0  0  0  0  0  0  0  0  0  0
   -4.7320    1.6562   -0.4369 C   0  0  0  0  0  0  0  0  0  0  0  0
   -3.8765    2.7423   -0.4587 C   0  0  0  0  0  0  0  0  0  0  0  0
   -2.5508    2.6142   -0.1088 C   0  0  0  0  0  0  0  0  0  0  0  0
   -1.5429    4.0418   -0.1659 Cl  0  0  0  0  0  0  0  0  0  0  0  0
   -2.0889    1.3715    0.2670 C   0  0  0  0  0  0  0  0  0  0  0  0
   -2.3820   -1.5226    1.9627 C   0  0  0  0  0  0  0  0  0  0  0  0
   -2.8709   -0.7696    3.0517 N   0  0  0  0  0  0  0  0  0  0  0  0
   -1.9141   -2.6782    2.1370 N   0  0  0  0  0  0  0  0  0  0  0  0
  1  2  1  0
  2  3  2  0
  3  4  1  0
  4  5  1  1
  5  6  2  0
  6  7  1  0
  7  8  2  0
  8  9  1  0
  9 10  1  0
 10 11  2  0
 11 12  1  0
 12 13  2  0
 13 14  1  0
 14 15  2  0
  8 16  1  0
 16 17  2  0
  4 18  1  0
 18 19  1  0
 19 20  2  0
 20 21  1  0
 21 22  2  0
 22 23  1  0
 23 24  1  0
 23 25  2  0
 18 26  1  0
 26 27  1  0
 26 28  2  0
 28  2  1  0
 17  5  1  0
 25 19  1  0
 15 10  1  0
M  END
>  <zinc_id>  (843) 
ZINC000013559311

>  <ortholog_name>  (843) 
DRTS_PLAFK

>  <gene_name>  (843) 
DRTS_PLAFK

>  <affinity>  (843) 
9.05

>  <chembldocid>  (843) 
17662

>  <title>  (843) 
None

>  <reference.pubmed_id>  (843) 
14736247

>  <reference.doi>  (843) 
None

>  <reference.chembl_id>  (843) 
CHEMBL1138835

>  <reference.journal>  (843) 
J. Med. Chem.

>  <reference.year>  (843) 
2004

$$$$

     RDKit          3D

 28 31  0  0  0  0  0  0  0  0999 V2000
   -0.9136   -4.8025    1.5392 N   0  0  0  0  0  0  0  0  0  0  0  0
   -1.4046   -3.5208    1.1636 C   0  0  0  0  0  0  0  0  0  0  0  0
   -1.3874   -3.1501    0.0140 N   0  0  0  0  0  0  0  0  0  0  0  0
   -1.8752   -1.8065   -0.5564 C   0  0  2  0  0  0  0  0  0  0  0  0
   -0.5032   -1.0277   -0.6997 C   0  0  0  0  0  0  0  0  0  0  0  0
   -0.3254   -0.3548   -1.8759 C   0  0  0  0  0  0  0  0  0  0  0  0
    0.8749    0.3674   -2.0840 C   0  0  0  0  0  0  0  0  0  0  0  0
    1.8485    0.3903   -1.1136 C   0  0  0  0  0  0  0  0  0  0  0  0
    3.0484    1.1132   -1.3236 O   0  0  0  0  0  0  0  0  0  0  0  0
    4.0044    1.1101   -0.3191 C   0  0  0  0  0  0  0  0  0  0  0  0
    3.8455    0.4440    0.8624 C   0  0  0  0  0  0  0  0  0  0  0  0
    4.8398    0.4934    1.8005 C   0  0  0  0  0  0  0  0  0  0  0  0
    5.9861    1.2055    1.5567 C   0  0  0  0  0  0  0  0  0  0  0  0
    6.1611    1.8821    0.3709 C   0  0  0  0  0  0  0  0  0  0  0  0
    5.1656    1.8400   -0.5833 C   0  0  0  0  0  0  0  0  0  0  0  0
    1.6484   -0.2906    0.0555 C   0  0  0  0  0  0  0  0  0  0  0  0
    0.4472   -0.9936    0.2237 C   0  0  0  0  0  0  0  0  0  0  0  0
   -2.3972   -1.0366    0.7021 N   0  0  0  0  0  0  0  0  0  0  0  0
   -2.8923    0.2615    0.3066 C   0  0  0  0  0  0  0  0  0  0  0  0
   -4.2129    0.4199   -0.0486 C   0  0  0  0  0  0  0  0  0  0  0  0
   -4.7320    1.6562   -0.4369 C   0  0  0  0  0  0  0  0  0  0  0  0
   -3.8765    2.7423   -0.4587 C   0  0  0  0  0  0  0  0  0  0  0  0
   -2.5508    2.6142   -0.1088 C   0  0  0  0  0  0  0  0  0  0  0  0
   -1.5429    4.0418   -0.1659 Cl  0  0  0  0  0  0  0  0  0  0  0  0
   -2.0889    1.3715    0.2670 C   0  0  0  0  0  0  0  0  0  0  0  0
   -2.3820   -1.5226    1.9627 C   0  0  0  0  0  0  0  0  0  0  0  0
   -2.8709   -0.7696    3.0517 N   0  0  0  0  0  0  0  0  0  0  0  0
   -1.9141   -2.6782    2.1370 N   0  0  0  0  0  0  0  0  0  0  0  0
  1  2  1  0
  2  3  2  0
  3  4  1  0
  4  5  1  1
  5  6  2  0
  6  7  1  0
  7  8  2  0
  8  9  1  0
  9 10  1  0
 10 11  2  0
 11 12  1  0
 12 13  2  0
 13 14  1  0
 14 15  2  0
  8 16  1  0
 16 17  2  0
  4 18  1  0
 18 19  1  0
 19 20  2  0
 20 21  1  0
 21 22  2  0
 22 23  1  0
 23 24  1  0
 23 25  2  0
 18 26  1  0
 26 27  1  0
 26 28  2  0
 28  2  1  0
 17  5  1  0
 25 19  1  0
 15 10  1  0
M  END
>  <zinc_id>  (844) 
ZINC000013559311

>  <ortholog_name>  (844) 
DRTS_PLAFK

>  <gene_name>  (844) 
DRTS_PLAFK

>  <affinity>  (844) 
8.89

>  <chembldocid>  (844) 
17662

>  <title>  (844) 
None

>  <reference.pubmed_id>  (844) 
14736247

>  <reference.doi>  (844) 
None

>  <reference.chembl_id>  (844) 
CHEMBL1138835

>  <reference.journal>  (844) 
J. Med. Chem.

>  <reference.year>  (844) 
2004

$$$$

     RDKit          3D

 28 31  0  0  0  0  0  0  0  0999 V2000
   -0.9136   -4.8025    1.5392 N   0  0  0  0  0  0  0  0  0  0  0  0
   -1.4046   -3.5208    1.1636 C   0  0  0  0  0  0  0  0  0  0  0  0
   -1.3874   -3.1501    0.0140 N   0  0  0  0  0  0  0  0  0  0  0  0
   -1.8752   -1.8065   -0.5564 C   0  0  2  0  0  0  0  0  0  0  0  0
   -0.5032   -1.0277   -0.6997 C   0  0  0  0  0  0  0  0  0  0  0  0
   -0.3254   -0.3548   -1.8759 C   0  0  0  0  0  0  0  0  0  0  0  0
    0.8749    0.3674   -2.0840 C   0  0  0  0  0  0  0  0  0  0  0  0
    1.8485    0.3903   -1.1136 C   0  0  0  0  0  0  0  0  0  0  0  0
    3.0484    1.1132   -1.3236 O   0  0  0  0  0  0  0  0  0  0  0  0
    4.0044    1.1101   -0.3191 C   0  0  0  0  0  0  0  0  0  0  0  0
    3.8455    0.4440    0.8624 C   0  0  0  0  0  0  0  0  0  0  0  0
    4.8398    0.4934    1.8005 C   0  0  0  0  0  0  0  0  0  0  0  0
    5.9861    1.2055    1.5567 C   0  0  0  0  0  0  0  0  0  0  0  0
    6.1611    1.8821    0.3709 C   0  0  0  0  0  0  0  0  0  0  0  0
    5.1656    1.8400   -0.5833 C   0  0  0  0  0  0  0  0  0  0  0  0
    1.6484   -0.2906    0.0555 C   0  0  0  0  0  0  0  0  0  0  0  0
    0.4472   -0.9936    0.2237 C   0  0  0  0  0  0  0  0  0  0  0  0
   -2.3972   -1.0366    0.7021 N   0  0  0  0  0  0  0  0  0  0  0  0
   -2.8923    0.2615    0.3066 C   0  0  0  0  0  0  0  0  0  0  0  0
   -4.2129    0.4199   -0.0486 C   0  0  0  0  0  0  0  0  0  0  0  0
   -4.7320    1.6562   -0.4369 C   0  0  0  0  0  0  0  0  0  0  0  0
   -3.8765    2.7423   -0.4587 C   0  0  0  0  0  0  0  0  0  0  0  0
   -2.5508    2.6142   -0.1088 C   0  0  0  0  0  0  0  0  0  0  0  0
   -1.5429    4.0418   -0.1659 Cl  0  0  0  0  0  0  0  0  0  0  0  0
   -2.0889    1.3715    0.2670 C   0  0  0  0  0  0  0  0  0  0  0  0
   -2.3820   -1.5226    1.9627 C   0  0  0  0  0  0  0  0  0  0  0  0
   -2.8709   -0.7696    3.0517 N   0  0  0  0  0  0  0  0  0  0  0  0
   -1.9141   -2.6782    2.1370 N   0  0  0  0  0  0  0  0  0  0  0  0
  1  2  1  0
  2  3  2  0
  3  4  1  0
  4  5  1  1
  5  6  2  0
  6  7  1  0
  7  8  2  0
  8  9  1  0
  9 10  1  0
 10 11  2  0
 11 12  1  0
 12 13  2  0
 13 14  1  0
 14 15  2  0
  8 16  1  0
 16 17  2  0
  4 18  1  0
 18 19  1  0
 19 20  2  0
 20 21  1  0
 21 22  2  0
 22 23  1  0
 23 24  1  0
 23 25  2  0
 18 26  1  0
 26 27  1  0
 26 28  2  0
 28  2  1  0
 17  5  1  0
 25 19  1  0
 15 10  1  0
M  END
>  <zinc_id>  (845) 
ZINC000013559311

>  <ortholog_name>  (845) 
DRTS_PLAFK

>  <gene_name>  (845) 
DRTS_PLAFK

>  <affinity>  (845) 
8.57

>  <chembldocid>  (845) 
17662

>  <title>  (845) 
None

>  <reference.pubmed_id>  (845) 
14736247

>  <reference.doi>  (845) 
None

>  <reference.chembl_id>  (845) 
CHEMBL1138835

>  <reference.journal>  (845) 
J. Med. Chem.

>  <reference.year>  (845) 
2004

$$$$

     RDKit          3D

 28 31  0  0  0  0  0  0  0  0999 V2000
   -0.9136   -4.8025    1.5392 N   0  0  0  0  0  0  0  0  0  0  0  0
   -1.4046   -3.5208    1.1636 C   0  0  0  0  0  0  0  0  0  0  0  0
   -1.3874   -3.1501    0.0140 N   0  0  0  0  0  0  0  0  0  0  0  0
   -1.8752   -1.8065   -0.5564 C   0  0  2  0  0  0  0  0  0  0  0  0
   -0.5032   -1.0277   -0.6997 C   0  0  0  0  0  0  0  0  0  0  0  0
   -0.3254   -0.3548   -1.8759 C   0  0  0  0  0  0  0  0  0  0  0  0
    0.8749    0.3674   -2.0840 C   0  0  0  0  0  0  0  0  0  0  0  0
    1.8485    0.3903   -1.1136 C   0  0  0  0  0  0  0  0  0  0  0  0
    3.0484    1.1132   -1.3236 O   0  0  0  0  0  0  0  0  0  0  0  0
    4.0044    1.1101   -0.3191 C   0  0  0  0  0  0  0  0  0  0  0  0
    3.8455    0.4440    0.8624 C   0  0  0  0  0  0  0  0  0  0  0  0
    4.8398    0.4934    1.8005 C   0  0  0  0  0  0  0  0  0  0  0  0
    5.9861    1.2055    1.5567 C   0  0  0  0  0  0  0  0  0  0  0  0
    6.1611    1.8821    0.3709 C   0  0  0  0  0  0  0  0  0  0  0  0
    5.1656    1.8400   -0.5833 C   0  0  0  0  0  0  0  0  0  0  0  0
    1.6484   -0.2906    0.0555 C   0  0  0  0  0  0  0  0  0  0  0  0
    0.4472   -0.9936    0.2237 C   0  0  0  0  0  0  0  0  0  0  0  0
   -2.3972   -1.0366    0.7021 N   0  0  0  0  0  0  0  0  0  0  0  0
   -2.8923    0.2615    0.3066 C   0  0  0  0  0  0  0  0  0  0  0  0
   -4.2129    0.4199   -0.0486 C   0  0  0  0  0  0  0  0  0  0  0  0
   -4.7320    1.6562   -0.4369 C   0  0  0  0  0  0  0  0  0  0  0  0
   -3.8765    2.7423   -0.4587 C   0  0  0  0  0  0  0  0  0  0  0  0
   -2.5508    2.6142   -0.1088 C   0  0  0  0  0  0  0  0  0  0  0  0
   -1.5429    4.0418   -0.1659 Cl  0  0  0  0  0  0  0  0  0  0  0  0
   -2.0889    1.3715    0.2670 C   0  0  0  0  0  0  0  0  0  0  0  0
   -2.3820   -1.5226    1.9627 C   0  0  0  0  0  0  0  0  0  0  0  0
   -2.8709   -0.7696    3.0517 N   0  0  0  0  0  0  0  0  0  0  0  0
   -1.9141   -2.6782    2.1370 N   0  0  0  0  0  0  0  0  0  0  0  0
  1  2  1  0
  2  3  2  0
  3  4  1  0
  4  5  1  1
  5  6  2  0
  6  7  1  0
  7  8  2  0
  8  9  1  0
  9 10  1  0
 10 11  2  0
 11 12  1  0
 12 13  2  0
 13 14  1  0
 14 15  2  0
  8 16  1  0
 16 17  2  0
  4 18  1  0
 18 19  1  0
 19 20  2  0
 20 21  1  0
 21 22  2  0
 22 23  1  0
 23 24  1  0
 23 25  2  0
 18 26  1  0
 26 27  1  0
 26 28  2  0
 28  2  1  0
 17  5  1  0
 25 19  1  0
 15 10  1  0
M  END
>  <zinc_id>  (846) 
ZINC000013559311

>  <ortholog_name>  (846) 
DRTS_PLAFK

>  <gene_name>  (846) 
DRTS_PLAFK

>  <affinity>  (846) 
5.51

>  <chembldocid>  (846) 
17662

>  <title>  (846) 
None

>  <reference.pubmed_id>  (846) 
14736247

>  <reference.doi>  (846) 
None

>  <reference.chembl_id>  (846) 
CHEMBL1138835

>  <reference.journal>  (846) 
J. Med. Chem.

>  <reference.year>  (846) 
2004

$$$$

     RDKit          3D

 28 31  0  0  0  0  0  0  0  0999 V2000
   -0.9136   -4.8025    1.5392 N   0  0  0  0  0  0  0  0  0  0  0  0
   -1.4046   -3.5208    1.1636 C   0  0  0  0  0  0  0  0  0  0  0  0
   -1.3874   -3.1501    0.0140 N   0  0  0  0  0  0  0  0  0  0  0  0
   -1.8752   -1.8065   -0.5564 C   0  0  2  0  0  0  0  0  0  0  0  0
   -0.5032   -1.0277   -0.6997 C   0  0  0  0  0  0  0  0  0  0  0  0
   -0.3254   -0.3548   -1.8759 C   0  0  0  0  0  0  0  0  0  0  0  0
    0.8749    0.3674   -2.0840 C   0  0  0  0  0  0  0  0  0  0  0  0
    1.8485    0.3903   -1.1136 C   0  0  0  0  0  0  0  0  0  0  0  0
    3.0484    1.1132   -1.3236 O   0  0  0  0  0  0  0  0  0  0  0  0
    4.0044    1.1101   -0.3191 C   0  0  0  0  0  0  0  0  0  0  0  0
    3.8455    0.4440    0.8624 C   0  0  0  0  0  0  0  0  0  0  0  0
    4.8398    0.4934    1.8005 C   0  0  0  0  0  0  0  0  0  0  0  0
    5.9861    1.2055    1.5567 C   0  0  0  0  0  0  0  0  0  0  0  0
    6.1611    1.8821    0.3709 C   0  0  0  0  0  0  0  0  0  0  0  0
    5.1656    1.8400   -0.5833 C   0  0  0  0  0  0  0  0  0  0  0  0
    1.6484   -0.2906    0.0555 C   0  0  0  0  0  0  0  0  0  0  0  0
    0.4472   -0.9936    0.2237 C   0  0  0  0  0  0  0  0  0  0  0  0
   -2.3972   -1.0366    0.7021 N   0  0  0  0  0  0  0  0  0  0  0  0
   -2.8923    0.2615    0.3066 C   0  0  0  0  0  0  0  0  0  0  0  0
   -4.2129    0.4199   -0.0486 C   0  0  0  0  0  0  0  0  0  0  0  0
   -4.7320    1.6562   -0.4369 C   0  0  0  0  0  0  0  0  0  0  0  0
   -3.8765    2.7423   -0.4587 C   0  0  0  0  0  0  0  0  0  0  0  0
   -2.5508    2.6142   -0.1088 C   0  0  0  0  0  0  0  0  0  0  0  0
   -1.5429    4.0418   -0.1659 Cl  0  0  0  0  0  0  0  0  0  0  0  0
   -2.0889    1.3715    0.2670 C   0  0  0  0  0  0  0  0  0  0  0  0
   -2.3820   -1.5226    1.9627 C   0  0  0  0  0  0  0  0  0  0  0  0
   -2.8709   -0.7696    3.0517 N   0  0  0  0  0  0  0  0  0  0  0  0
   -1.9141   -2.6782    2.1370 N   0  0  0  0  0  0  0  0  0  0  0  0
  1  2  1  0
  2  3  2  0
  3  4  1  0
  4  5  1  1
  5  6  2  0
  6  7  1  0
  7  8  2  0
  8  9  1  0
  9 10  1  0
 10 11  2  0
 11 12  1  0
 12 13  2  0
 13 14  1  0
 14 15  2  0
  8 16  1  0
 16 17  2  0
  4 18  1  0
 18 19  1  0
 19 20  2  0
 20 21  1  0
 21 22  2  0
 22 23  1  0
 23 24  1  0
 23 25  2  0
 18 26  1  0
 26 27  1  0
 26 28  2  0
 28  2  1  0
 17  5  1  0
 25 19  1  0
 15 10  1  0
M  END
>  <zinc_id>  (847) 
ZINC000013559311

>  <ortholog_name>  (847) 
DRTS_PLAFK

>  <gene_name>  (847) 
DRTS_PLAFK

>  <affinity>  (847) 
5.48

>  <chembldocid>  (847) 
17662

>  <title>  (847) 
None

>  <reference.pubmed_id>  (847) 
14736247

>  <reference.doi>  (847) 
None

>  <reference.chembl_id>  (847) 
CHEMBL1138835

>  <reference.journal>  (847) 
J. Med. Chem.

>  <reference.year>  (847) 
2004

$$$$

     RDKit          3D

 28 31  0  0  0  0  0  0  0  0999 V2000
   -0.9136   -4.8025    1.5392 N   0  0  0  0  0  0  0  0  0  0  0  0
   -1.4046   -3.5208    1.1636 C   0  0  0  0  0  0  0  0  0  0  0  0
   -1.3874   -3.1501    0.0140 N   0  0  0  0  0  0  0  0  0  0  0  0
   -1.8752   -1.8065   -0.5564 C   0  0  2  0  0  0  0  0  0  0  0  0
   -0.5032   -1.0277   -0.6997 C   0  0  0  0  0  0  0  0  0  0  0  0
   -0.3254   -0.3548   -1.8759 C   0  0  0  0  0  0  0  0  0  0  0  0
    0.8749    0.3674   -2.0840 C   0  0  0  0  0  0  0  0  0  0  0  0
    1.8485    0.3903   -1.1136 C   0  0  0  0  0  0  0  0  0  0  0  0
    3.0484    1.1132   -1.3236 O   0  0  0  0  0  0  0  0  0  0  0  0
    4.0044    1.1101   -0.3191 C   0  0  0  0  0  0  0  0  0  0  0  0
    3.8455    0.4440    0.8624 C   0  0  0  0  0  0  0  0  0  0  0  0
    4.8398    0.4934    1.8005 C   0  0  0  0  0  0  0  0  0  0  0  0
    5.9861    1.2055    1.5567 C   0  0  0  0  0  0  0  0  0  0  0  0
    6.1611    1.8821    0.3709 C   0  0  0  0  0  0  0  0  0  0  0  0
    5.1656    1.8400   -0.5833 C   0  0  0  0  0  0  0  0  0  0  0  0
    1.6484   -0.2906    0.0555 C   0  0  0  0  0  0  0  0  0  0  0  0
    0.4472   -0.9936    0.2237 C   0  0  0  0  0  0  0  0  0  0  0  0
   -2.3972   -1.0366    0.7021 N   0  0  0  0  0  0  0  0  0  0  0  0
   -2.8923    0.2615    0.3066 C   0  0  0  0  0  0  0  0  0  0  0  0
   -4.2129    0.4199   -0.0486 C   0  0  0  0  0  0  0  0  0  0  0  0
   -4.7320    1.6562   -0.4369 C   0  0  0  0  0  0  0  0  0  0  0  0
   -3.8765    2.7423   -0.4587 C   0  0  0  0  0  0  0  0  0  0  0  0
   -2.5508    2.6142   -0.1088 C   0  0  0  0  0  0  0  0  0  0  0  0
   -1.5429    4.0418   -0.1659 Cl  0  0  0  0  0  0  0  0  0  0  0  0
   -2.0889    1.3715    0.2670 C   0  0  0  0  0  0  0  0  0  0  0  0
   -2.3820   -1.5226    1.9627 C   0  0  0  0  0  0  0  0  0  0  0  0
   -2.8709   -0.7696    3.0517 N   0  0  0  0  0  0  0  0  0  0  0  0
   -1.9141   -2.6782    2.1370 N   0  0  0  0  0  0  0  0  0  0  0  0
  1  2  1  0
  2  3  2  0
  3  4  1  0
  4  5  1  1
  5  6  2  0
  6  7  1  0
  7  8  2  0
  8  9  1  0
  9 10  1  0
 10 11  2  0
 11 12  1  0
 12 13  2  0
 13 14  1  0
 14 15  2  0
  8 16  1  0
 16 17  2  0
  4 18  1  0
 18 19  1  0
 19 20  2  0
 20 21  1  0
 21 22  2  0
 22 23  1  0
 23 24  1  0
 23 25  2  0
 18 26  1  0
 26 27  1  0
 26 28  2  0
 28  2  1  0
 17  5  1  0
 25 19  1  0
 15 10  1  0
M  END
>  <zinc_id>  (848) 
ZINC000013559311

>  <ortholog_name>  (848) 
DRTS_PLAFK

>  <gene_name>  (848) 
DRTS_PLAFK

>  <affinity>  (848) 
8.40

>  <chembldocid>  (848) 
17662

>  <title>  (848) 
None

>  <reference.pubmed_id>  (848) 
14736247

>  <reference.doi>  (848) 
None

>  <reference.chembl_id>  (848) 
CHEMBL1138835

>  <reference.journal>  (848) 
J. Med. Chem.

>  <reference.year>  (848) 
2004

$$$$

     RDKit          3D

 28 31  0  0  0  0  0  0  0  0999 V2000
   -0.9136   -4.8025    1.5392 N   0  0  0  0  0  0  0  0  0  0  0  0
   -1.4046   -3.5208    1.1636 C   0  0  0  0  0  0  0  0  0  0  0  0
   -1.3874   -3.1501    0.0140 N   0  0  0  0  0  0  0  0  0  0  0  0
   -1.8752   -1.8065   -0.5564 C   0  0  2  0  0  0  0  0  0  0  0  0
   -0.5032   -1.0277   -0.6997 C   0  0  0  0  0  0  0  0  0  0  0  0
   -0.3254   -0.3548   -1.8759 C   0  0  0  0  0  0  0  0  0  0  0  0
    0.8749    0.3674   -2.0840 C   0  0  0  0  0  0  0  0  0  0  0  0
    1.8485    0.3903   -1.1136 C   0  0  0  0  0  0  0  0  0  0  0  0
    3.0484    1.1132   -1.3236 O   0  0  0  0  0  0  0  0  0  0  0  0
    4.0044    1.1101   -0.3191 C   0  0  0  0  0  0  0  0  0  0  0  0
    3.8455    0.4440    0.8624 C   0  0  0  0  0  0  0  0  0  0  0  0
    4.8398    0.4934    1.8005 C   0  0  0  0  0  0  0  0  0  0  0  0
    5.9861    1.2055    1.5567 C   0  0  0  0  0  0  0  0  0  0  0  0
    6.1611    1.8821    0.3709 C   0  0  0  0  0  0  0  0  0  0  0  0
    5.1656    1.8400   -0.5833 C   0  0  0  0  0  0  0  0  0  0  0  0
    1.6484   -0.2906    0.0555 C   0  0  0  0  0  0  0  0  0  0  0  0
    0.4472   -0.9936    0.2237 C   0  0  0  0  0  0  0  0  0  0  0  0
   -2.3972   -1.0366    0.7021 N   0  0  0  0  0  0  0  0  0  0  0  0
   -2.8923    0.2615    0.3066 C   0  0  0  0  0  0  0  0  0  0  0  0
   -4.2129    0.4199   -0.0486 C   0  0  0  0  0  0  0  0  0  0  0  0
   -4.7320    1.6562   -0.4369 C   0  0  0  0  0  0  0  0  0  0  0  0
   -3.8765    2.7423   -0.4587 C   0  0  0  0  0  0  0  0  0  0  0  0
   -2.5508    2.6142   -0.1088 C   0  0  0  0  0  0  0  0  0  0  0  0
   -1.5429    4.0418   -0.1659 Cl  0  0  0  0  0  0  0  0  0  0  0  0
   -2.0889    1.3715    0.2670 C   0  0  0  0  0  0  0  0  0  0  0  0
   -2.3820   -1.5226    1.9627 C   0  0  0  0  0  0  0  0  0  0  0  0
   -2.8709   -0.7696    3.0517 N   0  0  0  0  0  0  0  0  0  0  0  0
   -1.9141   -2.6782    2.1370 N   0  0  0  0  0  0  0  0  0  0  0  0
  1  2  1  0
  2  3  2  0
  3  4  1  0
  4  5  1  1
  5  6  2  0
  6  7  1  0
  7  8  2  0
  8  9  1  0
  9 10  1  0
 10 11  2  0
 11 12  1  0
 12 13  2  0
 13 14  1  0
 14 15  2  0
  8 16  1  0
 16 17  2  0
  4 18  1  0
 18 19  1  0
 19 20  2  0
 20 21  1  0
 21 22  2  0
 22 23  1  0
 23 24  1  0
 23 25  2  0
 18 26  1  0
 26 27  1  0
 26 28  2  0
 28  2  1  0
 17  5  1  0
 25 19  1  0
 15 10  1  0
M  END
>  <zinc_id>  (849) 
ZINC000013559311

>  <ortholog_name>  (849) 
DRTS_PLAFK

>  <gene_name>  (849) 
DRTS_PLAFK

>  <affinity>  (849) 
6.19

>  <chembldocid>  (849) 
17662

>  <title>  (849) 
None

>  <reference.pubmed_id>  (849) 
14736247

>  <reference.doi>  (849) 
None

>  <reference.chembl_id>  (849) 
CHEMBL1138835

>  <reference.journal>  (849) 
J. Med. Chem.

>  <reference.year>  (849) 
2004

$$$$

     RDKit          3D

 28 31  0  0  0  0  0  0  0  0999 V2000
   -0.9136   -4.8025    1.5392 N   0  0  0  0  0  0  0  0  0  0  0  0
   -1.4046   -3.5208    1.1636 C   0  0  0  0  0  0  0  0  0  0  0  0
   -1.3874   -3.1501    0.0140 N   0  0  0  0  0  0  0  0  0  0  0  0
   -1.8752   -1.8065   -0.5564 C   0  0  2  0  0  0  0  0  0  0  0  0
   -0.5032   -1.0277   -0.6997 C   0  0  0  0  0  0  0  0  0  0  0  0
   -0.3254   -0.3548   -1.8759 C   0  0  0  0  0  0  0  0  0  0  0  0
    0.8749    0.3674   -2.0840 C   0  0  0  0  0  0  0  0  0  0  0  0
    1.8485    0.3903   -1.1136 C   0  0  0  0  0  0  0  0  0  0  0  0
    3.0484    1.1132   -1.3236 O   0  0  0  0  0  0  0  0  0  0  0  0
    4.0044    1.1101   -0.3191 C   0  0  0  0  0  0  0  0  0  0  0  0
    3.8455    0.4440    0.8624 C   0  0  0  0  0  0  0  0  0  0  0  0
    4.8398    0.4934    1.8005 C   0  0  0  0  0  0  0  0  0  0  0  0
    5.9861    1.2055    1.5567 C   0  0  0  0  0  0  0  0  0  0  0  0
    6.1611    1.8821    0.3709 C   0  0  0  0  0  0  0  0  0  0  0  0
    5.1656    1.8400   -0.5833 C   0  0  0  0  0  0  0  0  0  0  0  0
    1.6484   -0.2906    0.0555 C   0  0  0  0  0  0  0  0  0  0  0  0
    0.4472   -0.9936    0.2237 C   0  0  0  0  0  0  0  0  0  0  0  0
   -2.3972   -1.0366    0.7021 N   0  0  0  0  0  0  0  0  0  0  0  0
   -2.8923    0.2615    0.3066 C   0  0  0  0  0  0  0  0  0  0  0  0
   -4.2129    0.4199   -0.0486 C   0  0  0  0  0  0  0  0  0  0  0  0
   -4.7320    1.6562   -0.4369 C   0  0  0  0  0  0  0  0  0  0  0  0
   -3.8765    2.7423   -0.4587 C   0  0  0  0  0  0  0  0  0  0  0  0
   -2.5508    2.6142   -0.1088 C   0  0  0  0  0  0  0  0  0  0  0  0
   -1.5429    4.0418   -0.1659 Cl  0  0  0  0  0  0  0  0  0  0  0  0
   -2.0889    1.3715    0.2670 C   0  0  0  0  0  0  0  0  0  0  0  0
   -2.3820   -1.5226    1.9627 C   0  0  0  0  0  0  0  0  0  0  0  0
   -2.8709   -0.7696    3.0517 N   0  0  0  0  0  0  0  0  0  0  0  0
   -1.9141   -2.6782    2.1370 N   0  0  0  0  0  0  0  0  0  0  0  0
  1  2  1  0
  2  3  2  0
  3  4  1  0
  4  5  1  1
  5  6  2  0
  6  7  1  0
  7  8  2  0
  8  9  1  0
  9 10  1  0
 10 11  2  0
 11 12  1  0
 12 13  2  0
 13 14  1  0
 14 15  2  0
  8 16  1  0
 16 17  2  0
  4 18  1  0
 18 19  1  0
 19 20  2  0
 20 21  1  0
 21 22  2  0
 22 23  1  0
 23 24  1  0
 23 25  2  0
 18 26  1  0
 26 27  1  0
 26 28  2  0
 28  2  1  0
 17  5  1  0
 25 19  1  0
 15 10  1  0
M  END
>  <zinc_id>  (850) 
ZINC000013559311

>  <ortholog_name>  (850) 
DRTS_PLAFK

>  <gene_name>  (850) 
DRTS_PLAFK

>  <affinity>  (850) 
6.13

>  <chembldocid>  (850) 
17662

>  <title>  (850) 
None

>  <reference.pubmed_id>  (850) 
14736247

>  <reference.doi>  (850) 
None

>  <reference.chembl_id>  (850) 
CHEMBL1138835

>  <reference.journal>  (850) 
J. Med. Chem.

>  <reference.year>  (850) 
2004

$$$$

     RDKit          3D

 28 31  0  0  0  0  0  0  0  0999 V2000
   -0.7887    1.6953    5.2337 N   0  0  0  0  0  0  0  0  0  0  0  0
   -1.2141    1.2318    3.9200 C   0  0  0  0  0  0  0  0  0  0  0  0
   -0.9980    1.9893    2.9851 N   0  0  0  0  0  0  0  0  0  0  0  0
   -1.2903    1.8488    1.5119 C   0  0  1  0  0  0  0  0  0  0  0  0
    0.1280    1.4939    0.9320 C   0  0  0  0  0  0  0  0  0  0  0  0
    1.2129    2.2054    1.3179 C   0  0  0  0  0  0  0  0  0  0  0  0
    2.4939    1.9491    0.8549 C   0  0  0  0  0  0  0  0  0  0  0  0
    2.6231    0.9076   -0.0428 C   0  0  0  0  0  0  0  0  0  0  0  0
    1.5481    0.1570   -0.4634 C   0  0  0  0  0  0  0  0  0  0  0  0
    1.7396   -0.8718   -1.3624 O   0  0  0  0  0  0  0  0  0  0  0  0
    2.9682   -1.1865   -1.8641 C   0  0  0  0  0  0  0  0  0  0  0  0
    3.4870   -0.6374   -3.0097 C   0  0  0  0  0  0  0  0  0  0  0  0
    4.7429   -0.9876   -3.4836 C   0  0  0  0  0  0  0  0  0  0  0  0
    5.4960   -1.9060   -2.7979 C   0  0  0  0  0  0  0  0  0  0  0  0
    5.0059   -2.4646   -1.6612 C   0  0  0  0  0  0  0  0  0  0  0  0
    3.7596   -2.0982   -1.2168 C   0  0  0  0  0  0  0  0  0  0  0  0
    0.2760    0.4751    0.0496 C   0  0  0  0  0  0  0  0  0  0  0  0
   -2.0223    0.5189    1.4592 N   0  0  0  0  0  0  0  0  0  0  0  0
   -2.5232    0.1350    0.1506 C   0  0  0  0  0  0  0  0  0  0  0  0
   -2.3627    0.9341   -0.9507 C   0  0  0  0  0  0  0  0  0  0  0  0
   -2.8307    0.5895   -2.2057 C   0  0  0  0  0  0  0  0  0  0  0  0
   -3.4957   -0.5953   -2.4254 C   0  0  0  0  0  0  0  0  0  0  0  0
   -4.1008   -1.0585   -4.0083 Cl  0  0  0  0  0  0  0  0  0  0  0  0
   -3.6623   -1.4056   -1.3257 C   0  0  0  0  0  0  0  0  0  0  0  0
   -3.1859   -1.0394   -0.0826 C   0  0  0  0  0  0  0  0  0  0  0  0
   -2.2294   -0.3010    2.5616 C   0  0  0  0  0  0  0  0  0  0  0  0
   -2.9075   -1.5565    2.2674 N   0  0  0  0  0  0  0  0  0  0  0  0
   -1.8694   -0.0223    3.7755 N   0  0  0  0  0  0  0  0  0  0  0  0
  1  2  1  0
  2  3  2  0
  3  4  1  0
  4  5  1  6
  5  6  2  0
  6  7  1  0
  7  8  2  0
  8  9  1  0
  9 10  1  0
 10 11  1  0
 11 12  2  0
 12 13  1  0
 13 14  2  0
 14 15  1  0
 15 16  2  0
  9 17  2  0
  4 18  1  0
 18 19  1  0
 19 20  2  0
 20 21  1  0
 21 22  2  0
 22 23  1  0
 22 24  1  0
 24 25  2  0
 18 26  1  0
 26 27  1  0
 26 28  2  0
 28  2  1  0
 17  5  1  0
 25 19  1  0
 16 11  1  0
M  END
>  <zinc_id>  (851) 
ZINC000013559312

>  <ortholog_name>  (851) 
DRTS_PLAFK

>  <gene_name>  (851) 
DRTS_PLAFK

>  <affinity>  (851) 
9.30

>  <chembldocid>  (851) 
17662

>  <title>  (851) 
None

>  <reference.pubmed_id>  (851) 
14736247

>  <reference.doi>  (851) 
None

>  <reference.chembl_id>  (851) 
CHEMBL1138835

>  <reference.journal>  (851) 
J. Med. Chem.

>  <reference.year>  (851) 
2004

$$$$

     RDKit          3D

 28 31  0  0  0  0  0  0  0  0999 V2000
   -0.7887    1.6953    5.2337 N   0  0  0  0  0  0  0  0  0  0  0  0
   -1.2141    1.2318    3.9200 C   0  0  0  0  0  0  0  0  0  0  0  0
   -0.9980    1.9893    2.9851 N   0  0  0  0  0  0  0  0  0  0  0  0
   -1.2903    1.8488    1.5119 C   0  0  1  0  0  0  0  0  0  0  0  0
    0.1280    1.4939    0.9320 C   0  0  0  0  0  0  0  0  0  0  0  0
    1.2129    2.2054    1.3179 C   0  0  0  0  0  0  0  0  0  0  0  0
    2.4939    1.9491    0.8549 C   0  0  0  0  0  0  0  0  0  0  0  0
    2.6231    0.9076   -0.0428 C   0  0  0  0  0  0  0  0  0  0  0  0
    1.5481    0.1570   -0.4634 C   0  0  0  0  0  0  0  0  0  0  0  0
    1.7396   -0.8718   -1.3624 O   0  0  0  0  0  0  0  0  0  0  0  0
    2.9682   -1.1865   -1.8641 C   0  0  0  0  0  0  0  0  0  0  0  0
    3.4870   -0.6374   -3.0097 C   0  0  0  0  0  0  0  0  0  0  0  0
    4.7429   -0.9876   -3.4836 C   0  0  0  0  0  0  0  0  0  0  0  0
    5.4960   -1.9060   -2.7979 C   0  0  0  0  0  0  0  0  0  0  0  0
    5.0059   -2.4646   -1.6612 C   0  0  0  0  0  0  0  0  0  0  0  0
    3.7596   -2.0982   -1.2168 C   0  0  0  0  0  0  0  0  0  0  0  0
    0.2760    0.4751    0.0496 C   0  0  0  0  0  0  0  0  0  0  0  0
   -2.0223    0.5189    1.4592 N   0  0  0  0  0  0  0  0  0  0  0  0
   -2.5232    0.1350    0.1506 C   0  0  0  0  0  0  0  0  0  0  0  0
   -2.3627    0.9341   -0.9507 C   0  0  0  0  0  0  0  0  0  0  0  0
   -2.8307    0.5895   -2.2057 C   0  0  0  0  0  0  0  0  0  0  0  0
   -3.4957   -0.5953   -2.4254 C   0  0  0  0  0  0  0  0  0  0  0  0
   -4.1008   -1.0585   -4.0083 Cl  0  0  0  0  0  0  0  0  0  0  0  0
   -3.6623   -1.4056   -1.3257 C   0  0  0  0  0  0  0  0  0  0  0  0
   -3.1859   -1.0394   -0.0826 C   0  0  0  0  0  0  0  0  0  0  0  0
   -2.2294   -0.3010    2.5616 C   0  0  0  0  0  0  0  0  0  0  0  0
   -2.9075   -1.5565    2.2674 N   0  0  0  0  0  0  0  0  0  0  0  0
   -1.8694   -0.0223    3.7755 N   0  0  0  0  0  0  0  0  0  0  0  0
  1  2  1  0
  2  3  2  0
  3  4  1  0
  4  5  1  6
  5  6  2  0
  6  7  1  0
  7  8  2  0
  8  9  1  0
  9 10  1  0
 10 11  1  0
 11 12  2  0
 12 13  1  0
 13 14  2  0
 14 15  1  0
 15 16  2  0
  9 17  2  0
  4 18  1  0
 18 19  1  0
 19 20  2  0
 20 21  1  0
 21 22  2  0
 22 23  1  0
 22 24  1  0
 24 25  2  0
 18 26  1  0
 26 27  1  0
 26 28  2  0
 28  2  1  0
 17  5  1  0
 25 19  1  0
 16 11  1  0
M  END
>  <zinc_id>  (852) 
ZINC000013559312

>  <ortholog_name>  (852) 
DRTS_PLAFK

>  <gene_name>  (852) 
DRTS_PLAFK

>  <affinity>  (852) 
6.88

>  <chembldocid>  (852) 
17662

>  <title>  (852) 
None

>  <reference.pubmed_id>  (852) 
14736247

>  <reference.doi>  (852) 
None

>  <reference.chembl_id>  (852) 
CHEMBL1138835

>  <reference.journal>  (852) 
J. Med. Chem.

>  <reference.year>  (852) 
2004

$$$$

     RDKit          3D

 28 31  0  0  0  0  0  0  0  0999 V2000
   -0.7887    1.6953    5.2337 N   0  0  0  0  0  0  0  0  0  0  0  0
   -1.2141    1.2318    3.9200 C   0  0  0  0  0  0  0  0  0  0  0  0
   -0.9980    1.9893    2.9851 N   0  0  0  0  0  0  0  0  0  0  0  0
   -1.2903    1.8488    1.5119 C   0  0  1  0  0  0  0  0  0  0  0  0
    0.1280    1.4939    0.9320 C   0  0  0  0  0  0  0  0  0  0  0  0
    1.2129    2.2054    1.3179 C   0  0  0  0  0  0  0  0  0  0  0  0
    2.4939    1.9491    0.8549 C   0  0  0  0  0  0  0  0  0  0  0  0
    2.6231    0.9076   -0.0428 C   0  0  0  0  0  0  0  0  0  0  0  0
    1.5481    0.1570   -0.4634 C   0  0  0  0  0  0  0  0  0  0  0  0
    1.7396   -0.8718   -1.3624 O   0  0  0  0  0  0  0  0  0  0  0  0
    2.9682   -1.1865   -1.8641 C   0  0  0  0  0  0  0  0  0  0  0  0
    3.4870   -0.6374   -3.0097 C   0  0  0  0  0  0  0  0  0  0  0  0
    4.7429   -0.9876   -3.4836 C   0  0  0  0  0  0  0  0  0  0  0  0
    5.4960   -1.9060   -2.7979 C   0  0  0  0  0  0  0  0  0  0  0  0
    5.0059   -2.4646   -1.6612 C   0  0  0  0  0  0  0  0  0  0  0  0
    3.7596   -2.0982   -1.2168 C   0  0  0  0  0  0  0  0  0  0  0  0
    0.2760    0.4751    0.0496 C   0  0  0  0  0  0  0  0  0  0  0  0
   -2.0223    0.5189    1.4592 N   0  0  0  0  0  0  0  0  0  0  0  0
   -2.5232    0.1350    0.1506 C   0  0  0  0  0  0  0  0  0  0  0  0
   -2.3627    0.9341   -0.9507 C   0  0  0  0  0  0  0  0  0  0  0  0
   -2.8307    0.5895   -2.2057 C   0  0  0  0  0  0  0  0  0  0  0  0
   -3.4957   -0.5953   -2.4254 C   0  0  0  0  0  0  0  0  0  0  0  0
   -4.1008   -1.0585   -4.0083 Cl  0  0  0  0  0  0  0  0  0  0  0  0
   -3.6623   -1.4056   -1.3257 C   0  0  0  0  0  0  0  0  0  0  0  0
   -3.1859   -1.0394   -0.0826 C   0  0  0  0  0  0  0  0  0  0  0  0
   -2.2294   -0.3010    2.5616 C   0  0  0  0  0  0  0  0  0  0  0  0
   -2.9075   -1.5565    2.2674 N   0  0  0  0  0  0  0  0  0  0  0  0
   -1.8694   -0.0223    3.7755 N   0  0  0  0  0  0  0  0  0  0  0  0
  1  2  1  0
  2  3  2  0
  3  4  1  0
  4  5  1  6
  5  6  2  0
  6  7  1  0
  7  8  2  0
  8  9  1  0
  9 10  1  0
 10 11  1  0
 11 12  2  0
 12 13  1  0
 13 14  2  0
 14 15  1  0
 15 16  2  0
  9 17  2  0
  4 18  1  0
 18 19  1  0
 19 20  2  0
 20 21  1  0
 21 22  2  0
 22 23  1  0
 22 24  1  0
 24 25  2  0
 18 26  1  0
 26 27  1  0
 26 28  2  0
 28  2  1  0
 17  5  1  0
 25 19  1  0
 16 11  1  0
M  END
>  <zinc_id>  (853) 
ZINC000013559312

>  <ortholog_name>  (853) 
DRTS_PLAFK

>  <gene_name>  (853) 
DRTS_PLAFK

>  <affinity>  (853) 
8.57

>  <chembldocid>  (853) 
17662

>  <title>  (853) 
None

>  <reference.pubmed_id>  (853) 
14736247

>  <reference.doi>  (853) 
None

>  <reference.chembl_id>  (853) 
CHEMBL1138835

>  <reference.journal>  (853) 
J. Med. Chem.

>  <reference.year>  (853) 
2004

$$$$

     RDKit          3D

 28 31  0  0  0  0  0  0  0  0999 V2000
   -0.7887    1.6953    5.2337 N   0  0  0  0  0  0  0  0  0  0  0  0
   -1.2141    1.2318    3.9200 C   0  0  0  0  0  0  0  0  0  0  0  0
   -0.9980    1.9893    2.9851 N   0  0  0  0  0  0  0  0  0  0  0  0
   -1.2903    1.8488    1.5119 C   0  0  1  0  0  0  0  0  0  0  0  0
    0.1280    1.4939    0.9320 C   0  0  0  0  0  0  0  0  0  0  0  0
    1.2129    2.2054    1.3179 C   0  0  0  0  0  0  0  0  0  0  0  0
    2.4939    1.9491    0.8549 C   0  0  0  0  0  0  0  0  0  0  0  0
    2.6231    0.9076   -0.0428 C   0  0  0  0  0  0  0  0  0  0  0  0
    1.5481    0.1570   -0.4634 C   0  0  0  0  0  0  0  0  0  0  0  0
    1.7396   -0.8718   -1.3624 O   0  0  0  0  0  0  0  0  0  0  0  0
    2.9682   -1.1865   -1.8641 C   0  0  0  0  0  0  0  0  0  0  0  0
    3.4870   -0.6374   -3.0097 C   0  0  0  0  0  0  0  0  0  0  0  0
    4.7429   -0.9876   -3.4836 C   0  0  0  0  0  0  0  0  0  0  0  0
    5.4960   -1.9060   -2.7979 C   0  0  0  0  0  0  0  0  0  0  0  0
    5.0059   -2.4646   -1.6612 C   0  0  0  0  0  0  0  0  0  0  0  0
    3.7596   -2.0982   -1.2168 C   0  0  0  0  0  0  0  0  0  0  0  0
    0.2760    0.4751    0.0496 C   0  0  0  0  0  0  0  0  0  0  0  0
   -2.0223    0.5189    1.4592 N   0  0  0  0  0  0  0  0  0  0  0  0
   -2.5232    0.1350    0.1506 C   0  0  0  0  0  0  0  0  0  0  0  0
   -2.3627    0.9341   -0.9507 C   0  0  0  0  0  0  0  0  0  0  0  0
   -2.8307    0.5895   -2.2057 C   0  0  0  0  0  0  0  0  0  0  0  0
   -3.4957   -0.5953   -2.4254 C   0  0  0  0  0  0  0  0  0  0  0  0
   -4.1008   -1.0585   -4.0083 Cl  0  0  0  0  0  0  0  0  0  0  0  0
   -3.6623   -1.4056   -1.3257 C   0  0  0  0  0  0  0  0  0  0  0  0
   -3.1859   -1.0394   -0.0826 C   0  0  0  0  0  0  0  0  0  0  0  0
   -2.2294   -0.3010    2.5616 C   0  0  0  0  0  0  0  0  0  0  0  0
   -2.9075   -1.5565    2.2674 N   0  0  0  0  0  0  0  0  0  0  0  0
   -1.8694   -0.0223    3.7755 N   0  0  0  0  0  0  0  0  0  0  0  0
  1  2  1  0
  2  3  2  0
  3  4  1  0
  4  5  1  6
  5  6  2  0
  6  7  1  0
  7  8  2  0
  8  9  1  0
  9 10  1  0
 10 11  1  0
 11 12  2  0
 12 13  1  0
 13 14  2  0
 14 15  1  0
 15 16  2  0
  9 17  2  0
  4 18  1  0
 18 19  1  0
 19 20  2  0
 20 21  1  0
 21 22  2  0
 22 23  1  0
 22 24  1  0
 24 25  2  0
 18 26  1  0
 26 27  1  0
 26 28  2  0
 28  2  1  0
 17  5  1  0
 25 19  1  0
 16 11  1  0
M  END
>  <zinc_id>  (854) 
ZINC000013559312

>  <ortholog_name>  (854) 
DRTS_PLAFK

>  <gene_name>  (854) 
DRTS_PLAFK

>  <affinity>  (854) 
7.63

>  <chembldocid>  (854) 
17662

>  <title>  (854) 
None

>  <reference.pubmed_id>  (854) 
14736247

>  <reference.doi>  (854) 
None

>  <reference.chembl_id>  (854) 
CHEMBL1138835

>  <reference.journal>  (854) 
J. Med. Chem.

>  <reference.year>  (854) 
2004

$$$$

     RDKit          3D

 28 31  0  0  0  0  0  0  0  0999 V2000
   -0.7887    1.6953    5.2337 N   0  0  0  0  0  0  0  0  0  0  0  0
   -1.2141    1.2318    3.9200 C   0  0  0  0  0  0  0  0  0  0  0  0
   -0.9980    1.9893    2.9851 N   0  0  0  0  0  0  0  0  0  0  0  0
   -1.2903    1.8488    1.5119 C   0  0  1  0  0  0  0  0  0  0  0  0
    0.1280    1.4939    0.9320 C   0  0  0  0  0  0  0  0  0  0  0  0
    1.2129    2.2054    1.3179 C   0  0  0  0  0  0  0  0  0  0  0  0
    2.4939    1.9491    0.8549 C   0  0  0  0  0  0  0  0  0  0  0  0
    2.6231    0.9076   -0.0428 C   0  0  0  0  0  0  0  0  0  0  0  0
    1.5481    0.1570   -0.4634 C   0  0  0  0  0  0  0  0  0  0  0  0
    1.7396   -0.8718   -1.3624 O   0  0  0  0  0  0  0  0  0  0  0  0
    2.9682   -1.1865   -1.8641 C   0  0  0  0  0  0  0  0  0  0  0  0
    3.4870   -0.6374   -3.0097 C   0  0  0  0  0  0  0  0  0  0  0  0
    4.7429   -0.9876   -3.4836 C   0  0  0  0  0  0  0  0  0  0  0  0
    5.4960   -1.9060   -2.7979 C   0  0  0  0  0  0  0  0  0  0  0  0
    5.0059   -2.4646   -1.6612 C   0  0  0  0  0  0  0  0  0  0  0  0
    3.7596   -2.0982   -1.2168 C   0  0  0  0  0  0  0  0  0  0  0  0
    0.2760    0.4751    0.0496 C   0  0  0  0  0  0  0  0  0  0  0  0
   -2.0223    0.5189    1.4592 N   0  0  0  0  0  0  0  0  0  0  0  0
   -2.5232    0.1350    0.1506 C   0  0  0  0  0  0  0  0  0  0  0  0
   -2.3627    0.9341   -0.9507 C   0  0  0  0  0  0  0  0  0  0  0  0
   -2.8307    0.5895   -2.2057 C   0  0  0  0  0  0  0  0  0  0  0  0
   -3.4957   -0.5953   -2.4254 C   0  0  0  0  0  0  0  0  0  0  0  0
   -4.1008   -1.0585   -4.0083 Cl  0  0  0  0  0  0  0  0  0  0  0  0
   -3.6623   -1.4056   -1.3257 C   0  0  0  0  0  0  0  0  0  0  0  0
   -3.1859   -1.0394   -0.0826 C   0  0  0  0  0  0  0  0  0  0  0  0
   -2.2294   -0.3010    2.5616 C   0  0  0  0  0  0  0  0  0  0  0  0
   -2.9075   -1.5565    2.2674 N   0  0  0  0  0  0  0  0  0  0  0  0
   -1.8694   -0.0223    3.7755 N   0  0  0  0  0  0  0  0  0  0  0  0
  1  2  1  0
  2  3  2  0
  3  4  1  0
  4  5  1  6
  5  6  2  0
  6  7  1  0
  7  8  2  0
  8  9  1  0
  9 10  1  0
 10 11  1  0
 11 12  2  0
 12 13  1  0
 13 14  2  0
 14 15  1  0
 15 16  2  0
  9 17  2  0
  4 18  1  0
 18 19  1  0
 19 20  2  0
 20 21  1  0
 21 22  2  0
 22 23  1  0
 22 24  1  0
 24 25  2  0
 18 26  1  0
 26 27  1  0
 26 28  2  0
 28  2  1  0
 17  5  1  0
 25 19  1  0
 16 11  1  0
M  END
>  <zinc_id>  (855) 
ZINC000013559312

>  <ortholog_name>  (855) 
DRTS_PLAFK

>  <gene_name>  (855) 
DRTS_PLAFK

>  <affinity>  (855) 
6.62

>  <chembldocid>  (855) 
17662

>  <title>  (855) 
None

>  <reference.pubmed_id>  (855) 
14736247

>  <reference.doi>  (855) 
None

>  <reference.chembl_id>  (855) 
CHEMBL1138835

>  <reference.journal>  (855) 
J. Med. Chem.

>  <reference.year>  (855) 
2004

$$$$

     RDKit          3D

 28 31  0  0  0  0  0  0  0  0999 V2000
   -0.4918    2.7310   -4.6766 N   0  0  0  0  0  0  0  0  0  0  0  0
   -1.0122    1.9202   -3.5814 C   0  0  0  0  0  0  0  0  0  0  0  0
   -1.0081    2.4709   -2.4826 N   0  0  0  0  0  0  0  0  0  0  0  0
   -1.4750    1.9161   -1.1389 C   0  0  2  0  0  0  0  0  0  0  0  0
   -0.0629    1.5704   -0.4823 C   0  0  0  0  0  0  0  0  0  0  0  0
    0.8515    2.5724   -0.6051 C   0  0  0  0  0  0  0  0  0  0  0  0
    2.1295    2.4253   -0.0858 C   0  0  0  0  0  0  0  0  0  0  0  0
    2.3686    1.2105    0.5414 C   0  0  0  0  0  0  0  0  0  0  0  0
    1.4394    0.2014    0.6621 C   0  0  0  0  0  0  0  0  0  0  0  0
    1.7521   -1.0033    1.3110 O   0  0  0  0  0  0  0  0  0  0  0  0
    3.0292   -1.1575    1.8331 C   0  0  0  0  0  0  0  0  0  0  0  0
    3.3339   -0.7816    3.1281 C   0  0  0  0  0  0  0  0  0  0  0  0
    4.5753   -0.9147    3.6834 C   0  0  0  0  0  0  0  0  0  0  0  0
    5.5886   -1.4411    2.9514 C   0  0  0  0  0  0  0  0  0  0  0  0
    5.3431   -1.8301    1.6637 C   0  0  0  0  0  0  0  0  0  0  0  0
    4.0741   -1.6923    1.1014 C   0  0  0  0  0  0  0  0  0  0  0  0
    0.1725    0.4063    0.1210 C   0  0  0  0  0  0  0  0  0  0  0  0
   -1.9816    0.5198   -1.5284 N   0  0  0  0  0  0  0  0  0  0  0  0
   -2.5321   -0.2181   -0.4075 C   0  0  0  0  0  0  0  0  0  0  0  0
   -2.6021    0.2862    0.8694 C   0  0  0  0  0  0  0  0  0  0  0  0
   -3.1258   -0.4164    1.9348 C   0  0  0  0  0  0  0  0  0  0  0  0
   -3.6054   -1.6830    1.7292 C   0  0  0  0  0  0  0  0  0  0  0  0
   -4.2790   -2.6089    3.0578 Cl  0  0  0  0  0  0  0  0  0  0  0  0
   -3.5598   -2.2278    0.4871 C   0  0  0  0  0  0  0  0  0  0  0  0
   -3.0281   -1.4942   -0.5563 C   0  0  0  0  0  0  0  0  0  0  0  0
   -1.9426   -0.0183   -2.7971 C   0  0  0  0  0  0  0  0  0  0  0  0
   -2.4626   -1.3753   -2.8973 N   0  0  0  0  0  0  0  0  0  0  0  0
   -1.4890    0.6004   -3.8356 N   0  0  0  0  0  0  0  0  0  0  0  0
  1  2  1  0
  2  3  2  0
  3  4  1  0
  4  5  1  1
  5  6  2  0
  6  7  1  0
  7  8  2  0
  8  9  1  0
  9 10  1  0
 10 11  1  0
 11 12  2  0
 12 13  1  0
 13 14  2  0
 14 15  1  0
 15 16  2  0
  9 17  2  0
  4 18  1  0
 18 19  1  0
 19 20  2  0
 20 21  1  0
 21 22  2  0
 22 23  1  0
 22 24  1  0
 24 25  2  0
 18 26  1  0
 26 27  1  0
 26 28  2  0
 28  2  1  0
 17  5  1  0
 25 19  1  0
 16 11  1  0
M  END
>  <zinc_id>  (856) 
ZINC000013559313

>  <ortholog_name>  (856) 
DRTS_PLAFK

>  <gene_name>  (856) 
DRTS_PLAFK

>  <affinity>  (856) 
9.30

>  <chembldocid>  (856) 
17662

>  <title>  (856) 
None

>  <reference.pubmed_id>  (856) 
14736247

>  <reference.doi>  (856) 
None

>  <reference.chembl_id>  (856) 
CHEMBL1138835

>  <reference.journal>  (856) 
J. Med. Chem.

>  <reference.year>  (856) 
2004

$$$$

     RDKit          3D

 28 31  0  0  0  0  0  0  0  0999 V2000
   -0.4918    2.7310   -4.6766 N   0  0  0  0  0  0  0  0  0  0  0  0
   -1.0122    1.9202   -3.5814 C   0  0  0  0  0  0  0  0  0  0  0  0
   -1.0081    2.4709   -2.4826 N   0  0  0  0  0  0  0  0  0  0  0  0
   -1.4750    1.9161   -1.1389 C   0  0  2  0  0  0  0  0  0  0  0  0
   -0.0629    1.5704   -0.4823 C   0  0  0  0  0  0  0  0  0  0  0  0
    0.8515    2.5724   -0.6051 C   0  0  0  0  0  0  0  0  0  0  0  0
    2.1295    2.4253   -0.0858 C   0  0  0  0  0  0  0  0  0  0  0  0
    2.3686    1.2105    0.5414 C   0  0  0  0  0  0  0  0  0  0  0  0
    1.4394    0.2014    0.6621 C   0  0  0  0  0  0  0  0  0  0  0  0
    1.7521   -1.0033    1.3110 O   0  0  0  0  0  0  0  0  0  0  0  0
    3.0292   -1.1575    1.8331 C   0  0  0  0  0  0  0  0  0  0  0  0
    3.3339   -0.7816    3.1281 C   0  0  0  0  0  0  0  0  0  0  0  0
    4.5753   -0.9147    3.6834 C   0  0  0  0  0  0  0  0  0  0  0  0
    5.5886   -1.4411    2.9514 C   0  0  0  0  0  0  0  0  0  0  0  0
    5.3431   -1.8301    1.6637 C   0  0  0  0  0  0  0  0  0  0  0  0
    4.0741   -1.6923    1.1014 C   0  0  0  0  0  0  0  0  0  0  0  0
    0.1725    0.4063    0.1210 C   0  0  0  0  0  0  0  0  0  0  0  0
   -1.9816    0.5198   -1.5284 N   0  0  0  0  0  0  0  0  0  0  0  0
   -2.5321   -0.2181   -0.4075 C   0  0  0  0  0  0  0  0  0  0  0  0
   -2.6021    0.2862    0.8694 C   0  0  0  0  0  0  0  0  0  0  0  0
   -3.1258   -0.4164    1.9348 C   0  0  0  0  0  0  0  0  0  0  0  0
   -3.6054   -1.6830    1.7292 C   0  0  0  0  0  0  0  0  0  0  0  0
   -4.2790   -2.6089    3.0578 Cl  0  0  0  0  0  0  0  0  0  0  0  0
   -3.5598   -2.2278    0.4871 C   0  0  0  0  0  0  0  0  0  0  0  0
   -3.0281   -1.4942   -0.5563 C   0  0  0  0  0  0  0  0  0  0  0  0
   -1.9426   -0.0183   -2.7971 C   0  0  0  0  0  0  0  0  0  0  0  0
   -2.4626   -1.3753   -2.8973 N   0  0  0  0  0  0  0  0  0  0  0  0
   -1.4890    0.6004   -3.8356 N   0  0  0  0  0  0  0  0  0  0  0  0
  1  2  1  0
  2  3  2  0
  3  4  1  0
  4  5  1  1
  5  6  2  0
  6  7  1  0
  7  8  2  0
  8  9  1  0
  9 10  1  0
 10 11  1  0
 11 12  2  0
 12 13  1  0
 13 14  2  0
 14 15  1  0
 15 16  2  0
  9 17  2  0
  4 18  1  0
 18 19  1  0
 19 20  2  0
 20 21  1  0
 21 22  2  0
 22 23  1  0
 22 24  1  0
 24 25  2  0
 18 26  1  0
 26 27  1  0
 26 28  2  0
 28  2  1  0
 17  5  1  0
 25 19  1  0
 16 11  1  0
M  END
>  <zinc_id>  (857) 
ZINC000013559313

>  <ortholog_name>  (857) 
DRTS_PLAFK

>  <gene_name>  (857) 
DRTS_PLAFK

>  <affinity>  (857) 
6.88

>  <chembldocid>  (857) 
17662

>  <title>  (857) 
None

>  <reference.pubmed_id>  (857) 
14736247

>  <reference.doi>  (857) 
None

>  <reference.chembl_id>  (857) 
CHEMBL1138835

>  <reference.journal>  (857) 
J. Med. Chem.

>  <reference.year>  (857) 
2004

$$$$

     RDKit          3D

 28 31  0  0  0  0  0  0  0  0999 V2000
   -0.4918    2.7310   -4.6766 N   0  0  0  0  0  0  0  0  0  0  0  0
   -1.0122    1.9202   -3.5814 C   0  0  0  0  0  0  0  0  0  0  0  0
   -1.0081    2.4709   -2.4826 N   0  0  0  0  0  0  0  0  0  0  0  0
   -1.4750    1.9161   -1.1389 C   0  0  2  0  0  0  0  0  0  0  0  0
   -0.0629    1.5704   -0.4823 C   0  0  0  0  0  0  0  0  0  0  0  0
    0.8515    2.5724   -0.6051 C   0  0  0  0  0  0  0  0  0  0  0  0
    2.1295    2.4253   -0.0858 C   0  0  0  0  0  0  0  0  0  0  0  0
    2.3686    1.2105    0.5414 C   0  0  0  0  0  0  0  0  0  0  0  0
    1.4394    0.2014    0.6621 C   0  0  0  0  0  0  0  0  0  0  0  0
    1.7521   -1.0033    1.3110 O   0  0  0  0  0  0  0  0  0  0  0  0
    3.0292   -1.1575    1.8331 C   0  0  0  0  0  0  0  0  0  0  0  0
    3.3339   -0.7816    3.1281 C   0  0  0  0  0  0  0  0  0  0  0  0
    4.5753   -0.9147    3.6834 C   0  0  0  0  0  0  0  0  0  0  0  0
    5.5886   -1.4411    2.9514 C   0  0  0  0  0  0  0  0  0  0  0  0
    5.3431   -1.8301    1.6637 C   0  0  0  0  0  0  0  0  0  0  0  0
    4.0741   -1.6923    1.1014 C   0  0  0  0  0  0  0  0  0  0  0  0
    0.1725    0.4063    0.1210 C   0  0  0  0  0  0  0  0  0  0  0  0
   -1.9816    0.5198   -1.5284 N   0  0  0  0  0  0  0  0  0  0  0  0
   -2.5321   -0.2181   -0.4075 C   0  0  0  0  0  0  0  0  0  0  0  0
   -2.6021    0.2862    0.8694 C   0  0  0  0  0  0  0  0  0  0  0  0
   -3.1258   -0.4164    1.9348 C   0  0  0  0  0  0  0  0  0  0  0  0
   -3.6054   -1.6830    1.7292 C   0  0  0  0  0  0  0  0  0  0  0  0
   -4.2790   -2.6089    3.0578 Cl  0  0  0  0  0  0  0  0  0  0  0  0
   -3.5598   -2.2278    0.4871 C   0  0  0  0  0  0  0  0  0  0  0  0
   -3.0281   -1.4942   -0.5563 C   0  0  0  0  0  0  0  0  0  0  0  0
   -1.9426   -0.0183   -2.7971 C   0  0  0  0  0  0  0  0  0  0  0  0
   -2.4626   -1.3753   -2.8973 N   0  0  0  0  0  0  0  0  0  0  0  0
   -1.4890    0.6004   -3.8356 N   0  0  0  0  0  0  0  0  0  0  0  0
  1  2  1  0
  2  3  2  0
  3  4  1  0
  4  5  1  1
  5  6  2  0
  6  7  1  0
  7  8  2  0
  8  9  1  0
  9 10  1  0
 10 11  1  0
 11 12  2  0
 12 13  1  0
 13 14  2  0
 14 15  1  0
 15 16  2  0
  9 17  2  0
  4 18  1  0
 18 19  1  0
 19 20  2  0
 20 21  1  0
 21 22  2  0
 22 23  1  0
 22 24  1  0
 24 25  2  0
 18 26  1  0
 26 27  1  0
 26 28  2  0
 28  2  1  0
 17  5  1  0
 25 19  1  0
 16 11  1  0
M  END
>  <zinc_id>  (858) 
ZINC000013559313

>  <ortholog_name>  (858) 
DRTS_PLAFK

>  <gene_name>  (858) 
DRTS_PLAFK

>  <affinity>  (858) 
8.57

>  <chembldocid>  (858) 
17662

>  <title>  (858) 
None

>  <reference.pubmed_id>  (858) 
14736247

>  <reference.doi>  (858) 
None

>  <reference.chembl_id>  (858) 
CHEMBL1138835

>  <reference.journal>  (858) 
J. Med. Chem.

>  <reference.year>  (858) 
2004

$$$$

     RDKit          3D

 28 31  0  0  0  0  0  0  0  0999 V2000
   -0.4918    2.7310   -4.6766 N   0  0  0  0  0  0  0  0  0  0  0  0
   -1.0122    1.9202   -3.5814 C   0  0  0  0  0  0  0  0  0  0  0  0
   -1.0081    2.4709   -2.4826 N   0  0  0  0  0  0  0  0  0  0  0  0
   -1.4750    1.9161   -1.1389 C   0  0  2  0  0  0  0  0  0  0  0  0
   -0.0629    1.5704   -0.4823 C   0  0  0  0  0  0  0  0  0  0  0  0
    0.8515    2.5724   -0.6051 C   0  0  0  0  0  0  0  0  0  0  0  0
    2.1295    2.4253   -0.0858 C   0  0  0  0  0  0  0  0  0  0  0  0
    2.3686    1.2105    0.5414 C   0  0  0  0  0  0  0  0  0  0  0  0
    1.4394    0.2014    0.6621 C   0  0  0  0  0  0  0  0  0  0  0  0
    1.7521   -1.0033    1.3110 O   0  0  0  0  0  0  0  0  0  0  0  0
    3.0292   -1.1575    1.8331 C   0  0  0  0  0  0  0  0  0  0  0  0
    3.3339   -0.7816    3.1281 C   0  0  0  0  0  0  0  0  0  0  0  0
    4.5753   -0.9147    3.6834 C   0  0  0  0  0  0  0  0  0  0  0  0
    5.5886   -1.4411    2.9514 C   0  0  0  0  0  0  0  0  0  0  0  0
    5.3431   -1.8301    1.6637 C   0  0  0  0  0  0  0  0  0  0  0  0
    4.0741   -1.6923    1.1014 C   0  0  0  0  0  0  0  0  0  0  0  0
    0.1725    0.4063    0.1210 C   0  0  0  0  0  0  0  0  0  0  0  0
   -1.9816    0.5198   -1.5284 N   0  0  0  0  0  0  0  0  0  0  0  0
   -2.5321   -0.2181   -0.4075 C   0  0  0  0  0  0  0  0  0  0  0  0
   -2.6021    0.2862    0.8694 C   0  0  0  0  0  0  0  0  0  0  0  0
   -3.1258   -0.4164    1.9348 C   0  0  0  0  0  0  0  0  0  0  0  0
   -3.6054   -1.6830    1.7292 C   0  0  0  0  0  0  0  0  0  0  0  0
   -4.2790   -2.6089    3.0578 Cl  0  0  0  0  0  0  0  0  0  0  0  0
   -3.5598   -2.2278    0.4871 C   0  0  0  0  0  0  0  0  0  0  0  0
   -3.0281   -1.4942   -0.5563 C   0  0  0  0  0  0  0  0  0  0  0  0
   -1.9426   -0.0183   -2.7971 C   0  0  0  0  0  0  0  0  0  0  0  0
   -2.4626   -1.3753   -2.8973 N   0  0  0  0  0  0  0  0  0  0  0  0
   -1.4890    0.6004   -3.8356 N   0  0  0  0  0  0  0  0  0  0  0  0
  1  2  1  0
  2  3  2  0
  3  4  1  0
  4  5  1  1
  5  6  2  0
  6  7  1  0
  7  8  2  0
  8  9  1  0
  9 10  1  0
 10 11  1  0
 11 12  2  0
 12 13  1  0
 13 14  2  0
 14 15  1  0
 15 16  2  0
  9 17  2  0
  4 18  1  0
 18 19  1  0
 19 20  2  0
 20 21  1  0
 21 22  2  0
 22 23  1  0
 22 24  1  0
 24 25  2  0
 18 26  1  0
 26 27  1  0
 26 28  2  0
 28  2  1  0
 17  5  1  0
 25 19  1  0
 16 11  1  0
M  END
>  <zinc_id>  (859) 
ZINC000013559313

>  <ortholog_name>  (859) 
DRTS_PLAFK

>  <gene_name>  (859) 
DRTS_PLAFK

>  <affinity>  (859) 
7.63

>  <chembldocid>  (859) 
17662

>  <title>  (859) 
None

>  <reference.pubmed_id>  (859) 
14736247

>  <reference.doi>  (859) 
None

>  <reference.chembl_id>  (859) 
CHEMBL1138835

>  <reference.journal>  (859) 
J. Med. Chem.

>  <reference.year>  (859) 
2004

$$$$

     RDKit          3D

 28 31  0  0  0  0  0  0  0  0999 V2000
   -0.4918    2.7310   -4.6766 N   0  0  0  0  0  0  0  0  0  0  0  0
   -1.0122    1.9202   -3.5814 C   0  0  0  0  0  0  0  0  0  0  0  0
   -1.0081    2.4709   -2.4826 N   0  0  0  0  0  0  0  0  0  0  0  0
   -1.4750    1.9161   -1.1389 C   0  0  2  0  0  0  0  0  0  0  0  0
   -0.0629    1.5704   -0.4823 C   0  0  0  0  0  0  0  0  0  0  0  0
    0.8515    2.5724   -0.6051 C   0  0  0  0  0  0  0  0  0  0  0  0
    2.1295    2.4253   -0.0858 C   0  0  0  0  0  0  0  0  0  0  0  0
    2.3686    1.2105    0.5414 C   0  0  0  0  0  0  0  0  0  0  0  0
    1.4394    0.2014    0.6621 C   0  0  0  0  0  0  0  0  0  0  0  0
    1.7521   -1.0033    1.3110 O   0  0  0  0  0  0  0  0  0  0  0  0
    3.0292   -1.1575    1.8331 C   0  0  0  0  0  0  0  0  0  0  0  0
    3.3339   -0.7816    3.1281 C   0  0  0  0  0  0  0  0  0  0  0  0
    4.5753   -0.9147    3.6834 C   0  0  0  0  0  0  0  0  0  0  0  0
    5.5886   -1.4411    2.9514 C   0  0  0  0  0  0  0  0  0  0  0  0
    5.3431   -1.8301    1.6637 C   0  0  0  0  0  0  0  0  0  0  0  0
    4.0741   -1.6923    1.1014 C   0  0  0  0  0  0  0  0  0  0  0  0
    0.1725    0.4063    0.1210 C   0  0  0  0  0  0  0  0  0  0  0  0
   -1.9816    0.5198   -1.5284 N   0  0  0  0  0  0  0  0  0  0  0  0
   -2.5321   -0.2181   -0.4075 C   0  0  0  0  0  0  0  0  0  0  0  0
   -2.6021    0.2862    0.8694 C   0  0  0  0  0  0  0  0  0  0  0  0
   -3.1258   -0.4164    1.9348 C   0  0  0  0  0  0  0  0  0  0  0  0
   -3.6054   -1.6830    1.7292 C   0  0  0  0  0  0  0  0  0  0  0  0
   -4.2790   -2.6089    3.0578 Cl  0  0  0  0  0  0  0  0  0  0  0  0
   -3.5598   -2.2278    0.4871 C   0  0  0  0  0  0  0  0  0  0  0  0
   -3.0281   -1.4942   -0.5563 C   0  0  0  0  0  0  0  0  0  0  0  0
   -1.9426   -0.0183   -2.7971 C   0  0  0  0  0  0  0  0  0  0  0  0
   -2.4626   -1.3753   -2.8973 N   0  0  0  0  0  0  0  0  0  0  0  0
   -1.4890    0.6004   -3.8356 N   0  0  0  0  0  0  0  0  0  0  0  0
  1  2  1  0
  2  3  2  0
  3  4  1  0
  4  5  1  1
  5  6  2  0
  6  7  1  0
  7  8  2  0
  8  9  1  0
  9 10  1  0
 10 11  1  0
 11 12  2  0
 12 13  1  0
 13 14  2  0
 14 15  1  0
 15 16  2  0
  9 17  2  0
  4 18  1  0
 18 19  1  0
 19 20  2  0
 20 21  1  0
 21 22  2  0
 22 23  1  0
 22 24  1  0
 24 25  2  0
 18 26  1  0
 26 27  1  0
 26 28  2  0
 28  2  1  0
 17  5  1  0
 25 19  1  0
 16 11  1  0
M  END
>  <zinc_id>  (860) 
ZINC000013559313

>  <ortholog_name>  (860) 
DRTS_PLAFK

>  <gene_name>  (860) 
DRTS_PLAFK

>  <affinity>  (860) 
6.62

>  <chembldocid>  (860) 
17662

>  <title>  (860) 
None

>  <reference.pubmed_id>  (860) 
14736247

>  <reference.doi>  (860) 
None

>  <reference.chembl_id>  (860) 
CHEMBL1138835

>  <reference.journal>  (860) 
J. Med. Chem.

>  <reference.year>  (860) 
2004

$$$$

     RDKit          3D

 28 31  0  0  0  0  0  0  0  0999 V2000
    1.2853    3.4064   -3.6376 N   0  0  0  0  0  0  0  0  0  0  0  0
    1.5898    2.6277   -2.4460 C   0  0  0  0  0  0  0  0  0  0  0  0
    0.6438    2.3576   -1.6968 N   0  0  0  0  0  0  0  0  0  0  0  0
    0.7313    1.6040   -0.4778 C   0  0  1  0  0  0  0  0  0  0  0  0
   -0.0468    0.2877   -0.7458 C   0  0  0  0  0  0  0  0  0  0  0  0
    0.0813   -0.4524   -1.8727 C   0  0  0  0  0  0  0  0  0  0  0  0
   -0.6337   -1.6241   -2.0735 C   0  0  0  0  0  0  0  0  0  0  0  0
   -1.4940   -2.0319   -1.0887 C   0  0  0  0  0  0  0  0  0  0  0  0
   -1.6579   -1.3140    0.0727 C   0  0  0  0  0  0  0  0  0  0  0  0
   -2.5473   -1.7904    1.0237 O   0  0  0  0  0  0  0  0  0  0  0  0
   -3.8841   -1.3595    0.9345 C   0  0  0  0  0  0  0  0  0  0  0  0
   -4.8333   -1.7856    1.8400 C   0  0  0  0  0  0  0  0  0  0  0  0
   -6.1540   -1.3767    1.7740 C   0  0  0  0  0  0  0  0  0  0  0  0
   -6.5594   -0.5168    0.7817 C   0  0  0  0  0  0  0  0  0  0  0  0
   -5.6261   -0.0723   -0.1427 C   0  0  0  0  0  0  0  0  0  0  0  0
   -4.3082   -0.4969   -0.0549 C   0  0  0  0  0  0  0  0  0  0  0  0
   -0.9090   -0.1385    0.2196 C   0  0  0  0  0  0  0  0  0  0  0  0
    2.1030    1.1841   -0.2133 N   0  0  0  0  0  0  0  0  0  0  0  0
    2.4111    0.4081    0.9813 C   0  0  0  0  0  0  0  0  0  0  0  0
    1.4451    0.0512    1.8830 C   0  0  0  0  0  0  0  0  0  0  0  0
    1.6650   -0.6759    3.0243 C   0  0  0  0  0  0  0  0  0  0  0  0
    2.9668   -1.0715    3.2694 C   0  0  0  0  0  0  0  0  0  0  0  0
    3.9853   -0.7538    2.4164 C   0  0  0  0  0  0  0  0  0  0  0  0
    5.6106   -1.2831    2.7815 Cl  0  0  0  0  0  0  0  0  0  0  0  0
    3.6809   -0.0096    1.2734 C   0  0  0  0  0  0  0  0  0  0  0  0
    3.0799    1.5438   -1.1217 C   0  0  0  0  0  0  0  0  0  0  0  0
    4.4136    1.0562   -0.7375 N   0  0  0  0  0  0  0  0  0  0  0  0
    2.9611    2.2262   -2.2163 N   0  0  0  0  0  0  0  0  0  0  0  0
  1  2  1  0
  2  3  2  0
  3  4  1  0
  4  5  1  6
  5  6  2  0
  6  7  1  0
  7  8  2  0
  8  9  1  0
  9 10  1  0
 10 11  1  0
 11 12  2  0
 12 13  1  0
 13 14  2  0
 14 15  1  0
 15 16  2  0
  9 17  2  0
  4 18  1  0
 18 19  1  0
 19 20  2  0
 20 21  1  0
 21 22  2  0
 22 23  1  0
 23 24  1  0
 23 25  2  0
 18 26  1  0
 26 27  1  0
 26 28  2  0
 28  2  1  0
 17  5  1  0
 25 19  1  0
 16 11  1  0
M  END
>  <zinc_id>  (861) 
ZINC000013559314

>  <ortholog_name>  (861) 
DRTS_PLAFK

>  <gene_name>  (861) 
DRTS_PLAFK

>  <affinity>  (861) 
8.96

>  <chembldocid>  (861) 
17662

>  <title>  (861) 
None

>  <reference.pubmed_id>  (861) 
14736247

>  <reference.doi>  (861) 
None

>  <reference.chembl_id>  (861) 
CHEMBL1138835

>  <reference.journal>  (861) 
J. Med. Chem.

>  <reference.year>  (861) 
2004

$$$$

     RDKit          3D

 28 31  0  0  0  0  0  0  0  0999 V2000
    1.2853    3.4064   -3.6376 N   0  0  0  0  0  0  0  0  0  0  0  0
    1.5898    2.6277   -2.4460 C   0  0  0  0  0  0  0  0  0  0  0  0
    0.6438    2.3576   -1.6968 N   0  0  0  0  0  0  0  0  0  0  0  0
    0.7313    1.6040   -0.4778 C   0  0  1  0  0  0  0  0  0  0  0  0
   -0.0468    0.2877   -0.7458 C   0  0  0  0  0  0  0  0  0  0  0  0
    0.0813   -0.4524   -1.8727 C   0  0  0  0  0  0  0  0  0  0  0  0
   -0.6337   -1.6241   -2.0735 C   0  0  0  0  0  0  0  0  0  0  0  0
   -1.4940   -2.0319   -1.0887 C   0  0  0  0  0  0  0  0  0  0  0  0
   -1.6579   -1.3140    0.0727 C   0  0  0  0  0  0  0  0  0  0  0  0
   -2.5473   -1.7904    1.0237 O   0  0  0  0  0  0  0  0  0  0  0  0
   -3.8841   -1.3595    0.9345 C   0  0  0  0  0  0  0  0  0  0  0  0
   -4.8333   -1.7856    1.8400 C   0  0  0  0  0  0  0  0  0  0  0  0
   -6.1540   -1.3767    1.7740 C   0  0  0  0  0  0  0  0  0  0  0  0
   -6.5594   -0.5168    0.7817 C   0  0  0  0  0  0  0  0  0  0  0  0
   -5.6261   -0.0723   -0.1427 C   0  0  0  0  0  0  0  0  0  0  0  0
   -4.3082   -0.4969   -0.0549 C   0  0  0  0  0  0  0  0  0  0  0  0
   -0.9090   -0.1385    0.2196 C   0  0  0  0  0  0  0  0  0  0  0  0
    2.1030    1.1841   -0.2133 N   0  0  0  0  0  0  0  0  0  0  0  0
    2.4111    0.4081    0.9813 C   0  0  0  0  0  0  0  0  0  0  0  0
    1.4451    0.0512    1.8830 C   0  0  0  0  0  0  0  0  0  0  0  0
    1.6650   -0.6759    3.0243 C   0  0  0  0  0  0  0  0  0  0  0  0
    2.9668   -1.0715    3.2694 C   0  0  0  0  0  0  0  0  0  0  0  0
    3.9853   -0.7538    2.4164 C   0  0  0  0  0  0  0  0  0  0  0  0
    5.6106   -1.2831    2.7815 Cl  0  0  0  0  0  0  0  0  0  0  0  0
    3.6809   -0.0096    1.2734 C   0  0  0  0  0  0  0  0  0  0  0  0
    3.0799    1.5438   -1.1217 C   0  0  0  0  0  0  0  0  0  0  0  0
    4.4136    1.0562   -0.7375 N   0  0  0  0  0  0  0  0  0  0  0  0
    2.9611    2.2262   -2.2163 N   0  0  0  0  0  0  0  0  0  0  0  0
  1  2  1  0
  2  3  2  0
  3  4  1  0
  4  5  1  6
  5  6  2  0
  6  7  1  0
  7  8  2  0
  8  9  1  0
  9 10  1  0
 10 11  1  0
 11 12  2  0
 12 13  1  0
 13 14  2  0
 14 15  1  0
 15 16  2  0
  9 17  2  0
  4 18  1  0
 18 19  1  0
 19 20  2  0
 20 21  1  0
 21 22  2  0
 22 23  1  0
 23 24  1  0
 23 25  2  0
 18 26  1  0
 26 27  1  0
 26 28  2  0
 28  2  1  0
 17  5  1  0
 25 19  1  0
 16 11  1  0
M  END
>  <zinc_id>  (862) 
ZINC000013559314

>  <ortholog_name>  (862) 
DRTS_PLAFK

>  <gene_name>  (862) 
DRTS_PLAFK

>  <affinity>  (862) 
8.60

>  <chembldocid>  (862) 
17662

>  <title>  (862) 
None

>  <reference.pubmed_id>  (862) 
14736247

>  <reference.doi>  (862) 
None

>  <reference.chembl_id>  (862) 
CHEMBL1138835

>  <reference.journal>  (862) 
J. Med. Chem.

>  <reference.year>  (862) 
2004

$$$$

     RDKit          3D

 28 31  0  0  0  0  0  0  0  0999 V2000
    1.2853    3.4064   -3.6376 N   0  0  0  0  0  0  0  0  0  0  0  0
    1.5898    2.6277   -2.4460 C   0  0  0  0  0  0  0  0  0  0  0  0
    0.6438    2.3576   -1.6968 N   0  0  0  0  0  0  0  0  0  0  0  0
    0.7313    1.6040   -0.4778 C   0  0  1  0  0  0  0  0  0  0  0  0
   -0.0468    0.2877   -0.7458 C   0  0  0  0  0  0  0  0  0  0  0  0
    0.0813   -0.4524   -1.8727 C   0  0  0  0  0  0  0  0  0  0  0  0
   -0.6337   -1.6241   -2.0735 C   0  0  0  0  0  0  0  0  0  0  0  0
   -1.4940   -2.0319   -1.0887 C   0  0  0  0  0  0  0  0  0  0  0  0
   -1.6579   -1.3140    0.0727 C   0  0  0  0  0  0  0  0  0  0  0  0
   -2.5473   -1.7904    1.0237 O   0  0  0  0  0  0  0  0  0  0  0  0
   -3.8841   -1.3595    0.9345 C   0  0  0  0  0  0  0  0  0  0  0  0
   -4.8333   -1.7856    1.8400 C   0  0  0  0  0  0  0  0  0  0  0  0
   -6.1540   -1.3767    1.7740 C   0  0  0  0  0  0  0  0  0  0  0  0
   -6.5594   -0.5168    0.7817 C   0  0  0  0  0  0  0  0  0  0  0  0
   -5.6261   -0.0723   -0.1427 C   0  0  0  0  0  0  0  0  0  0  0  0
   -4.3082   -0.4969   -0.0549 C   0  0  0  0  0  0  0  0  0  0  0  0
   -0.9090   -0.1385    0.2196 C   0  0  0  0  0  0  0  0  0  0  0  0
    2.1030    1.1841   -0.2133 N   0  0  0  0  0  0  0  0  0  0  0  0
    2.4111    0.4081    0.9813 C   0  0  0  0  0  0  0  0  0  0  0  0
    1.4451    0.0512    1.8830 C   0  0  0  0  0  0  0  0  0  0  0  0
    1.6650   -0.6759    3.0243 C   0  0  0  0  0  0  0  0  0  0  0  0
    2.9668   -1.0715    3.2694 C   0  0  0  0  0  0  0  0  0  0  0  0
    3.9853   -0.7538    2.4164 C   0  0  0  0  0  0  0  0  0  0  0  0
    5.6106   -1.2831    2.7815 Cl  0  0  0  0  0  0  0  0  0  0  0  0
    3.6809   -0.0096    1.2734 C   0  0  0  0  0  0  0  0  0  0  0  0
    3.0799    1.5438   -1.1217 C   0  0  0  0  0  0  0  0  0  0  0  0
    4.4136    1.0562   -0.7375 N   0  0  0  0  0  0  0  0  0  0  0  0
    2.9611    2.2262   -2.2163 N   0  0  0  0  0  0  0  0  0  0  0  0
  1  2  1  0
  2  3  2  0
  3  4  1  0
  4  5  1  6
  5  6  2  0
  6  7  1  0
  7  8  2  0
  8  9  1  0
  9 10  1  0
 10 11  1  0
 11 12  2  0
 12 13  1  0
 13 14  2  0
 14 15  1  0
 15 16  2  0
  9 17  2  0
  4 18  1  0
 18 19  1  0
 19 20  2  0
 20 21  1  0
 21 22  2  0
 22 23  1  0
 23 24  1  0
 23 25  2  0
 18 26  1  0
 26 27  1  0
 26 28  2  0
 28  2  1  0
 17  5  1  0
 25 19  1  0
 16 11  1  0
M  END
>  <zinc_id>  (863) 
ZINC000013559314

>  <ortholog_name>  (863) 
DRTS_PLAFK

>  <gene_name>  (863) 
DRTS_PLAFK

>  <affinity>  (863) 
5.66

>  <chembldocid>  (863) 
17662

>  <title>  (863) 
None

>  <reference.pubmed_id>  (863) 
14736247

>  <reference.doi>  (863) 
None

>  <reference.chembl_id>  (863) 
CHEMBL1138835

>  <reference.journal>  (863) 
J. Med. Chem.

>  <reference.year>  (863) 
2004

$$$$

     RDKit          3D

 28 31  0  0  0  0  0  0  0  0999 V2000
    1.2853    3.4064   -3.6376 N   0  0  0  0  0  0  0  0  0  0  0  0
    1.5898    2.6277   -2.4460 C   0  0  0  0  0  0  0  0  0  0  0  0
    0.6438    2.3576   -1.6968 N   0  0  0  0  0  0  0  0  0  0  0  0
    0.7313    1.6040   -0.4778 C   0  0  1  0  0  0  0  0  0  0  0  0
   -0.0468    0.2877   -0.7458 C   0  0  0  0  0  0  0  0  0  0  0  0
    0.0813   -0.4524   -1.8727 C   0  0  0  0  0  0  0  0  0  0  0  0
   -0.6337   -1.6241   -2.0735 C   0  0  0  0  0  0  0  0  0  0  0  0
   -1.4940   -2.0319   -1.0887 C   0  0  0  0  0  0  0  0  0  0  0  0
   -1.6579   -1.3140    0.0727 C   0  0  0  0  0  0  0  0  0  0  0  0
   -2.5473   -1.7904    1.0237 O   0  0  0  0  0  0  0  0  0  0  0  0
   -3.8841   -1.3595    0.9345 C   0  0  0  0  0  0  0  0  0  0  0  0
   -4.8333   -1.7856    1.8400 C   0  0  0  0  0  0  0  0  0  0  0  0
   -6.1540   -1.3767    1.7740 C   0  0  0  0  0  0  0  0  0  0  0  0
   -6.5594   -0.5168    0.7817 C   0  0  0  0  0  0  0  0  0  0  0  0
   -5.6261   -0.0723   -0.1427 C   0  0  0  0  0  0  0  0  0  0  0  0
   -4.3082   -0.4969   -0.0549 C   0  0  0  0  0  0  0  0  0  0  0  0
   -0.9090   -0.1385    0.2196 C   0  0  0  0  0  0  0  0  0  0  0  0
    2.1030    1.1841   -0.2133 N   0  0  0  0  0  0  0  0  0  0  0  0
    2.4111    0.4081    0.9813 C   0  0  0  0  0  0  0  0  0  0  0  0
    1.4451    0.0512    1.8830 C   0  0  0  0  0  0  0  0  0  0  0  0
    1.6650   -0.6759    3.0243 C   0  0  0  0  0  0  0  0  0  0  0  0
    2.9668   -1.0715    3.2694 C   0  0  0  0  0  0  0  0  0  0  0  0
    3.9853   -0.7538    2.4164 C   0  0  0  0  0  0  0  0  0  0  0  0
    5.6106   -1.2831    2.7815 Cl  0  0  0  0  0  0  0  0  0  0  0  0
    3.6809   -0.0096    1.2734 C   0  0  0  0  0  0  0  0  0  0  0  0
    3.0799    1.5438   -1.1217 C   0  0  0  0  0  0  0  0  0  0  0  0
    4.4136    1.0562   -0.7375 N   0  0  0  0  0  0  0  0  0  0  0  0
    2.9611    2.2262   -2.2163 N   0  0  0  0  0  0  0  0  0  0  0  0
  1  2  1  0
  2  3  2  0
  3  4  1  0
  4  5  1  6
  5  6  2  0
  6  7  1  0
  7  8  2  0
  8  9  1  0
  9 10  1  0
 10 11  1  0
 11 12  2  0
 12 13  1  0
 13 14  2  0
 14 15  1  0
 15 16  2  0
  9 17  2  0
  4 18  1  0
 18 19  1  0
 19 20  2  0
 20 21  1  0
 21 22  2  0
 22 23  1  0
 23 24  1  0
 23 25  2  0
 18 26  1  0
 26 27  1  0
 26 28  2  0
 28  2  1  0
 17  5  1  0
 25 19  1  0
 16 11  1  0
M  END
>  <zinc_id>  (864) 
ZINC000013559314

>  <ortholog_name>  (864) 
DRTS_PLAFK

>  <gene_name>  (864) 
DRTS_PLAFK

>  <affinity>  (864) 
5.57

>  <chembldocid>  (864) 
17662

>  <title>  (864) 
None

>  <reference.pubmed_id>  (864) 
14736247

>  <reference.doi>  (864) 
None

>  <reference.chembl_id>  (864) 
CHEMBL1138835

>  <reference.journal>  (864) 
J. Med. Chem.

>  <reference.year>  (864) 
2004

$$$$

     RDKit          3D

 28 31  0  0  0  0  0  0  0  0999 V2000
    1.2853    3.4064   -3.6376 N   0  0  0  0  0  0  0  0  0  0  0  0
    1.5898    2.6277   -2.4460 C   0  0  0  0  0  0  0  0  0  0  0  0
    0.6438    2.3576   -1.6968 N   0  0  0  0  0  0  0  0  0  0  0  0
    0.7313    1.6040   -0.4778 C   0  0  1  0  0  0  0  0  0  0  0  0
   -0.0468    0.2877   -0.7458 C   0  0  0  0  0  0  0  0  0  0  0  0
    0.0813   -0.4524   -1.8727 C   0  0  0  0  0  0  0  0  0  0  0  0
   -0.6337   -1.6241   -2.0735 C   0  0  0  0  0  0  0  0  0  0  0  0
   -1.4940   -2.0319   -1.0887 C   0  0  0  0  0  0  0  0  0  0  0  0
   -1.6579   -1.3140    0.0727 C   0  0  0  0  0  0  0  0  0  0  0  0
   -2.5473   -1.7904    1.0237 O   0  0  0  0  0  0  0  0  0  0  0  0
   -3.8841   -1.3595    0.9345 C   0  0  0  0  0  0  0  0  0  0  0  0
   -4.8333   -1.7856    1.8400 C   0  0  0  0  0  0  0  0  0  0  0  0
   -6.1540   -1.3767    1.7740 C   0  0  0  0  0  0  0  0  0  0  0  0
   -6.5594   -0.5168    0.7817 C   0  0  0  0  0  0  0  0  0  0  0  0
   -5.6261   -0.0723   -0.1427 C   0  0  0  0  0  0  0  0  0  0  0  0
   -4.3082   -0.4969   -0.0549 C   0  0  0  0  0  0  0  0  0  0  0  0
   -0.9090   -0.1385    0.2196 C   0  0  0  0  0  0  0  0  0  0  0  0
    2.1030    1.1841   -0.2133 N   0  0  0  0  0  0  0  0  0  0  0  0
    2.4111    0.4081    0.9813 C   0  0  0  0  0  0  0  0  0  0  0  0
    1.4451    0.0512    1.8830 C   0  0  0  0  0  0  0  0  0  0  0  0
    1.6650   -0.6759    3.0243 C   0  0  0  0  0  0  0  0  0  0  0  0
    2.9668   -1.0715    3.2694 C   0  0  0  0  0  0  0  0  0  0  0  0
    3.9853   -0.7538    2.4164 C   0  0  0  0  0  0  0  0  0  0  0  0
    5.6106   -1.2831    2.7815 Cl  0  0  0  0  0  0  0  0  0  0  0  0
    3.6809   -0.0096    1.2734 C   0  0  0  0  0  0  0  0  0  0  0  0
    3.0799    1.5438   -1.1217 C   0  0  0  0  0  0  0  0  0  0  0  0
    4.4136    1.0562   -0.7375 N   0  0  0  0  0  0  0  0  0  0  0  0
    2.9611    2.2262   -2.2163 N   0  0  0  0  0  0  0  0  0  0  0  0
  1  2  1  0
  2  3  2  0
  3  4  1  0
  4  5  1  6
  5  6  2  0
  6  7  1  0
  7  8  2  0
  8  9  1  0
  9 10  1  0
 10 11  1  0
 11 12  2  0
 12 13  1  0
 13 14  2  0
 14 15  1  0
 15 16  2  0
  9 17  2  0
  4 18  1  0
 18 19  1  0
 19 20  2  0
 20 21  1  0
 21 22  2  0
 22 23  1  0
 23 24  1  0
 23 25  2  0
 18 26  1  0
 26 27  1  0
 26 28  2  0
 28  2  1  0
 17  5  1  0
 25 19  1  0
 16 11  1  0
M  END
>  <zinc_id>  (865) 
ZINC000013559314

>  <ortholog_name>  (865) 
DRTS_PLAFK

>  <gene_name>  (865) 
DRTS_PLAFK

>  <affinity>  (865) 
8.52

>  <chembldocid>  (865) 
17662

>  <title>  (865) 
None

>  <reference.pubmed_id>  (865) 
14736247

>  <reference.doi>  (865) 
None

>  <reference.chembl_id>  (865) 
CHEMBL1138835

>  <reference.journal>  (865) 
J. Med. Chem.

>  <reference.year>  (865) 
2004

$$$$

     RDKit          3D

 28 31  0  0  0  0  0  0  0  0999 V2000
    1.2853    3.4064   -3.6376 N   0  0  0  0  0  0  0  0  0  0  0  0
    1.5898    2.6277   -2.4460 C   0  0  0  0  0  0  0  0  0  0  0  0
    0.6438    2.3576   -1.6968 N   0  0  0  0  0  0  0  0  0  0  0  0
    0.7313    1.6040   -0.4778 C   0  0  1  0  0  0  0  0  0  0  0  0
   -0.0468    0.2877   -0.7458 C   0  0  0  0  0  0  0  0  0  0  0  0
    0.0813   -0.4524   -1.8727 C   0  0  0  0  0  0  0  0  0  0  0  0
   -0.6337   -1.6241   -2.0735 C   0  0  0  0  0  0  0  0  0  0  0  0
   -1.4940   -2.0319   -1.0887 C   0  0  0  0  0  0  0  0  0  0  0  0
   -1.6579   -1.3140    0.0727 C   0  0  0  0  0  0  0  0  0  0  0  0
   -2.5473   -1.7904    1.0237 O   0  0  0  0  0  0  0  0  0  0  0  0
   -3.8841   -1.3595    0.9345 C   0  0  0  0  0  0  0  0  0  0  0  0
   -4.8333   -1.7856    1.8400 C   0  0  0  0  0  0  0  0  0  0  0  0
   -6.1540   -1.3767    1.7740 C   0  0  0  0  0  0  0  0  0  0  0  0
   -6.5594   -0.5168    0.7817 C   0  0  0  0  0  0  0  0  0  0  0  0
   -5.6261   -0.0723   -0.1427 C   0  0  0  0  0  0  0  0  0  0  0  0
   -4.3082   -0.4969   -0.0549 C   0  0  0  0  0  0  0  0  0  0  0  0
   -0.9090   -0.1385    0.2196 C   0  0  0  0  0  0  0  0  0  0  0  0
    2.1030    1.1841   -0.2133 N   0  0  0  0  0  0  0  0  0  0  0  0
    2.4111    0.4081    0.9813 C   0  0  0  0  0  0  0  0  0  0  0  0
    1.4451    0.0512    1.8830 C   0  0  0  0  0  0  0  0  0  0  0  0
    1.6650   -0.6759    3.0243 C   0  0  0  0  0  0  0  0  0  0  0  0
    2.9668   -1.0715    3.2694 C   0  0  0  0  0  0  0  0  0  0  0  0
    3.9853   -0.7538    2.4164 C   0  0  0  0  0  0  0  0  0  0  0  0
    5.6106   -1.2831    2.7815 Cl  0  0  0  0  0  0  0  0  0  0  0  0
    3.6809   -0.0096    1.2734 C   0  0  0  0  0  0  0  0  0  0  0  0
    3.0799    1.5438   -1.1217 C   0  0  0  0  0  0  0  0  0  0  0  0
    4.4136    1.0562   -0.7375 N   0  0  0  0  0  0  0  0  0  0  0  0
    2.9611    2.2262   -2.2163 N   0  0  0  0  0  0  0  0  0  0  0  0
  1  2  1  0
  2  3  2  0
  3  4  1  0
  4  5  1  6
  5  6  2  0
  6  7  1  0
  7  8  2  0
  8  9  1  0
  9 10  1  0
 10 11  1  0
 11 12  2  0
 12 13  1  0
 13 14  2  0
 14 15  1  0
 15 16  2  0
  9 17  2  0
  4 18  1  0
 18 19  1  0
 19 20  2  0
 20 21  1  0
 21 22  2  0
 22 23  1  0
 23 24  1  0
 23 25  2  0
 18 26  1  0
 26 27  1  0
 26 28  2  0
 28  2  1  0
 17  5  1  0
 25 19  1  0
 16 11  1  0
M  END
>  <zinc_id>  (866) 
ZINC000013559314

>  <ortholog_name>  (866) 
DRTS_PLAFK

>  <gene_name>  (866) 
DRTS_PLAFK

>  <affinity>  (866) 
5.47

>  <chembldocid>  (866) 
17662

>  <title>  (866) 
None

>  <reference.pubmed_id>  (866) 
14736247

>  <reference.doi>  (866) 
None

>  <reference.chembl_id>  (866) 
CHEMBL1138835

>  <reference.journal>  (866) 
J. Med. Chem.

>  <reference.year>  (866) 
2004

$$$$

     RDKit          3D

 28 31  0  0  0  0  0  0  0  0999 V2000
    1.2853    3.4064   -3.6376 N   0  0  0  0  0  0  0  0  0  0  0  0
    1.5898    2.6277   -2.4460 C   0  0  0  0  0  0  0  0  0  0  0  0
    0.6438    2.3576   -1.6968 N   0  0  0  0  0  0  0  0  0  0  0  0
    0.7313    1.6040   -0.4778 C   0  0  1  0  0  0  0  0  0  0  0  0
   -0.0468    0.2877   -0.7458 C   0  0  0  0  0  0  0  0  0  0  0  0
    0.0813   -0.4524   -1.8727 C   0  0  0  0  0  0  0  0  0  0  0  0
   -0.6337   -1.6241   -2.0735 C   0  0  0  0  0  0  0  0  0  0  0  0
   -1.4940   -2.0319   -1.0887 C   0  0  0  0  0  0  0  0  0  0  0  0
   -1.6579   -1.3140    0.0727 C   0  0  0  0  0  0  0  0  0  0  0  0
   -2.5473   -1.7904    1.0237 O   0  0  0  0  0  0  0  0  0  0  0  0
   -3.8841   -1.3595    0.9345 C   0  0  0  0  0  0  0  0  0  0  0  0
   -4.8333   -1.7856    1.8400 C   0  0  0  0  0  0  0  0  0  0  0  0
   -6.1540   -1.3767    1.7740 C   0  0  0  0  0  0  0  0  0  0  0  0
   -6.5594   -0.5168    0.7817 C   0  0  0  0  0  0  0  0  0  0  0  0
   -5.6261   -0.0723   -0.1427 C   0  0  0  0  0  0  0  0  0  0  0  0
   -4.3082   -0.4969   -0.0549 C   0  0  0  0  0  0  0  0  0  0  0  0
   -0.9090   -0.1385    0.2196 C   0  0  0  0  0  0  0  0  0  0  0  0
    2.1030    1.1841   -0.2133 N   0  0  0  0  0  0  0  0  0  0  0  0
    2.4111    0.4081    0.9813 C   0  0  0  0  0  0  0  0  0  0  0  0
    1.4451    0.0512    1.8830 C   0  0  0  0  0  0  0  0  0  0  0  0
    1.6650   -0.6759    3.0243 C   0  0  0  0  0  0  0  0  0  0  0  0
    2.9668   -1.0715    3.2694 C   0  0  0  0  0  0  0  0  0  0  0  0
    3.9853   -0.7538    2.4164 C   0  0  0  0  0  0  0  0  0  0  0  0
    5.6106   -1.2831    2.7815 Cl  0  0  0  0  0  0  0  0  0  0  0  0
    3.6809   -0.0096    1.2734 C   0  0  0  0  0  0  0  0  0  0  0  0
    3.0799    1.5438   -1.1217 C   0  0  0  0  0  0  0  0  0  0  0  0
    4.4136    1.0562   -0.7375 N   0  0  0  0  0  0  0  0  0  0  0  0
    2.9611    2.2262   -2.2163 N   0  0  0  0  0  0  0  0  0  0  0  0
  1  2  1  0
  2  3  2  0
  3  4  1  0
  4  5  1  6
  5  6  2  0
  6  7  1  0
  7  8  2  0
  8  9  1  0
  9 10  1  0
 10 11  1  0
 11 12  2  0
 12 13  1  0
 13 14  2  0
 14 15  1  0
 15 16  2  0
  9 17  2  0
  4 18  1  0
 18 19  1  0
 19 20  2  0
 20 21  1  0
 21 22  2  0
 22 23  1  0
 23 24  1  0
 23 25  2  0
 18 26  1  0
 26 27  1  0
 26 28  2  0
 28  2  1  0
 17  5  1  0
 25 19  1  0
 16 11  1  0
M  END
>  <zinc_id>  (867) 
ZINC000013559314

>  <ortholog_name>  (867) 
DRTS_PLAFK

>  <gene_name>  (867) 
DRTS_PLAFK

>  <affinity>  (867) 
5.46

>  <chembldocid>  (867) 
17662

>  <title>  (867) 
None

>  <reference.pubmed_id>  (867) 
14736247

>  <reference.doi>  (867) 
None

>  <reference.chembl_id>  (867) 
CHEMBL1138835

>  <reference.journal>  (867) 
J. Med. Chem.

>  <reference.year>  (867) 
2004

$$$$

     RDKit          3D

 28 31  0  0  0  0  0  0  0  0999 V2000
    1.2853    3.4064   -3.6376 N   0  0  0  0  0  0  0  0  0  0  0  0
    1.5898    2.6277   -2.4460 C   0  0  0  0  0  0  0  0  0  0  0  0
    0.6438    2.3576   -1.6968 N   0  0  0  0  0  0  0  0  0  0  0  0
    0.7313    1.6040   -0.4778 C   0  0  1  0  0  0  0  0  0  0  0  0
   -0.0468    0.2877   -0.7458 C   0  0  0  0  0  0  0  0  0  0  0  0
    0.0813   -0.4524   -1.8727 C   0  0  0  0  0  0  0  0  0  0  0  0
   -0.6337   -1.6241   -2.0735 C   0  0  0  0  0  0  0  0  0  0  0  0
   -1.4940   -2.0319   -1.0887 C   0  0  0  0  0  0  0  0  0  0  0  0
   -1.6579   -1.3140    0.0727 C   0  0  0  0  0  0  0  0  0  0  0  0
   -2.5473   -1.7904    1.0237 O   0  0  0  0  0  0  0  0  0  0  0  0
   -3.8841   -1.3595    0.9345 C   0  0  0  0  0  0  0  0  0  0  0  0
   -4.8333   -1.7856    1.8400 C   0  0  0  0  0  0  0  0  0  0  0  0
   -6.1540   -1.3767    1.7740 C   0  0  0  0  0  0  0  0  0  0  0  0
   -6.5594   -0.5168    0.7817 C   0  0  0  0  0  0  0  0  0  0  0  0
   -5.6261   -0.0723   -0.1427 C   0  0  0  0  0  0  0  0  0  0  0  0
   -4.3082   -0.4969   -0.0549 C   0  0  0  0  0  0  0  0  0  0  0  0
   -0.9090   -0.1385    0.2196 C   0  0  0  0  0  0  0  0  0  0  0  0
    2.1030    1.1841   -0.2133 N   0  0  0  0  0  0  0  0  0  0  0  0
    2.4111    0.4081    0.9813 C   0  0  0  0  0  0  0  0  0  0  0  0
    1.4451    0.0512    1.8830 C   0  0  0  0  0  0  0  0  0  0  0  0
    1.6650   -0.6759    3.0243 C   0  0  0  0  0  0  0  0  0  0  0  0
    2.9668   -1.0715    3.2694 C   0  0  0  0  0  0  0  0  0  0  0  0
    3.9853   -0.7538    2.4164 C   0  0  0  0  0  0  0  0  0  0  0  0
    5.6106   -1.2831    2.7815 Cl  0  0  0  0  0  0  0  0  0  0  0  0
    3.6809   -0.0096    1.2734 C   0  0  0  0  0  0  0  0  0  0  0  0
    3.0799    1.5438   -1.1217 C   0  0  0  0  0  0  0  0  0  0  0  0
    4.4136    1.0562   -0.7375 N   0  0  0  0  0  0  0  0  0  0  0  0
    2.9611    2.2262   -2.2163 N   0  0  0  0  0  0  0  0  0  0  0  0
  1  2  1  0
  2  3  2  0
  3  4  1  0
  4  5  1  6
  5  6  2  0
  6  7  1  0
  7  8  2  0
  8  9  1  0
  9 10  1  0
 10 11  1  0
 11 12  2  0
 12 13  1  0
 13 14  2  0
 14 15  1  0
 15 16  2  0
  9 17  2  0
  4 18  1  0
 18 19  1  0
 19 20  2  0
 20 21  1  0
 21 22  2  0
 22 23  1  0
 23 24  1  0
 23 25  2  0
 18 26  1  0
 26 27  1  0
 26 28  2  0
 28  2  1  0
 17  5  1  0
 25 19  1  0
 16 11  1  0
M  END
>  <zinc_id>  (868) 
ZINC000013559314

>  <ortholog_name>  (868) 
DRTS_PLAFK

>  <gene_name>  (868) 
DRTS_PLAFK

>  <affinity>  (868) 
5.44

>  <chembldocid>  (868) 
17662

>  <title>  (868) 
None

>  <reference.pubmed_id>  (868) 
14736247

>  <reference.doi>  (868) 
None

>  <reference.chembl_id>  (868) 
CHEMBL1138835

>  <reference.journal>  (868) 
J. Med. Chem.

>  <reference.year>  (868) 
2004

$$$$

     RDKit          3D

 28 31  0  0  0  0  0  0  0  0999 V2000
    1.2853    3.4064   -3.6376 N   0  0  0  0  0  0  0  0  0  0  0  0
    1.5898    2.6277   -2.4460 C   0  0  0  0  0  0  0  0  0  0  0  0
    0.6438    2.3576   -1.6968 N   0  0  0  0  0  0  0  0  0  0  0  0
    0.7313    1.6040   -0.4778 C   0  0  1  0  0  0  0  0  0  0  0  0
   -0.0468    0.2877   -0.7458 C   0  0  0  0  0  0  0  0  0  0  0  0
    0.0813   -0.4524   -1.8727 C   0  0  0  0  0  0  0  0  0  0  0  0
   -0.6337   -1.6241   -2.0735 C   0  0  0  0  0  0  0  0  0  0  0  0
   -1.4940   -2.0319   -1.0887 C   0  0  0  0  0  0  0  0  0  0  0  0
   -1.6579   -1.3140    0.0727 C   0  0  0  0  0  0  0  0  0  0  0  0
   -2.5473   -1.7904    1.0237 O   0  0  0  0  0  0  0  0  0  0  0  0
   -3.8841   -1.3595    0.9345 C   0  0  0  0  0  0  0  0  0  0  0  0
   -4.8333   -1.7856    1.8400 C   0  0  0  0  0  0  0  0  0  0  0  0
   -6.1540   -1.3767    1.7740 C   0  0  0  0  0  0  0  0  0  0  0  0
   -6.5594   -0.5168    0.7817 C   0  0  0  0  0  0  0  0  0  0  0  0
   -5.6261   -0.0723   -0.1427 C   0  0  0  0  0  0  0  0  0  0  0  0
   -4.3082   -0.4969   -0.0549 C   0  0  0  0  0  0  0  0  0  0  0  0
   -0.9090   -0.1385    0.2196 C   0  0  0  0  0  0  0  0  0  0  0  0
    2.1030    1.1841   -0.2133 N   0  0  0  0  0  0  0  0  0  0  0  0
    2.4111    0.4081    0.9813 C   0  0  0  0  0  0  0  0  0  0  0  0
    1.4451    0.0512    1.8830 C   0  0  0  0  0  0  0  0  0  0  0  0
    1.6650   -0.6759    3.0243 C   0  0  0  0  0  0  0  0  0  0  0  0
    2.9668   -1.0715    3.2694 C   0  0  0  0  0  0  0  0  0  0  0  0
    3.9853   -0.7538    2.4164 C   0  0  0  0  0  0  0  0  0  0  0  0
    5.6106   -1.2831    2.7815 Cl  0  0  0  0  0  0  0  0  0  0  0  0
    3.6809   -0.0096    1.2734 C   0  0  0  0  0  0  0  0  0  0  0  0
    3.0799    1.5438   -1.1217 C   0  0  0  0  0  0  0  0  0  0  0  0
    4.4136    1.0562   -0.7375 N   0  0  0  0  0  0  0  0  0  0  0  0
    2.9611    2.2262   -2.2163 N   0  0  0  0  0  0  0  0  0  0  0  0
  1  2  1  0
  2  3  2  0
  3  4  1  0
  4  5  1  6
  5  6  2  0
  6  7  1  0
  7  8  2  0
  8  9  1  0
  9 10  1  0
 10 11  1  0
 11 12  2  0
 12 13  1  0
 13 14  2  0
 14 15  1  0
 15 16  2  0
  9 17  2  0
  4 18  1  0
 18 19  1  0
 19 20  2  0
 20 21  1  0
 21 22  2  0
 22 23  1  0
 23 24  1  0
 23 25  2  0
 18 26  1  0
 26 27  1  0
 26 28  2  0
 28  2  1  0
 17  5  1  0
 25 19  1  0
 16 11  1  0
M  END
>  <zinc_id>  (869) 
ZINC000013559314

>  <ortholog_name>  (869) 
DRTS_PLAFK

>  <gene_name>  (869) 
DRTS_PLAFK

>  <affinity>  (869) 
8.24

>  <chembldocid>  (869) 
17662

>  <title>  (869) 
None

>  <reference.pubmed_id>  (869) 
14736247

>  <reference.doi>  (869) 
None

>  <reference.chembl_id>  (869) 
CHEMBL1138835

>  <reference.journal>  (869) 
J. Med. Chem.

>  <reference.year>  (869) 
2004

$$$$

     RDKit          3D

 28 31  0  0  0  0  0  0  0  0999 V2000
    1.2853    3.4064   -3.6376 N   0  0  0  0  0  0  0  0  0  0  0  0
    1.5898    2.6277   -2.4460 C   0  0  0  0  0  0  0  0  0  0  0  0
    0.6438    2.3576   -1.6968 N   0  0  0  0  0  0  0  0  0  0  0  0
    0.7313    1.6040   -0.4778 C   0  0  1  0  0  0  0  0  0  0  0  0
   -0.0468    0.2877   -0.7458 C   0  0  0  0  0  0  0  0  0  0  0  0
    0.0813   -0.4524   -1.8727 C   0  0  0  0  0  0  0  0  0  0  0  0
   -0.6337   -1.6241   -2.0735 C   0  0  0  0  0  0  0  0  0  0  0  0
   -1.4940   -2.0319   -1.0887 C   0  0  0  0  0  0  0  0  0  0  0  0
   -1.6579   -1.3140    0.0727 C   0  0  0  0  0  0  0  0  0  0  0  0
   -2.5473   -1.7904    1.0237 O   0  0  0  0  0  0  0  0  0  0  0  0
   -3.8841   -1.3595    0.9345 C   0  0  0  0  0  0  0  0  0  0  0  0
   -4.8333   -1.7856    1.8400 C   0  0  0  0  0  0  0  0  0  0  0  0
   -6.1540   -1.3767    1.7740 C   0  0  0  0  0  0  0  0  0  0  0  0
   -6.5594   -0.5168    0.7817 C   0  0  0  0  0  0  0  0  0  0  0  0
   -5.6261   -0.0723   -0.1427 C   0  0  0  0  0  0  0  0  0  0  0  0
   -4.3082   -0.4969   -0.0549 C   0  0  0  0  0  0  0  0  0  0  0  0
   -0.9090   -0.1385    0.2196 C   0  0  0  0  0  0  0  0  0  0  0  0
    2.1030    1.1841   -0.2133 N   0  0  0  0  0  0  0  0  0  0  0  0
    2.4111    0.4081    0.9813 C   0  0  0  0  0  0  0  0  0  0  0  0
    1.4451    0.0512    1.8830 C   0  0  0  0  0  0  0  0  0  0  0  0
    1.6650   -0.6759    3.0243 C   0  0  0  0  0  0  0  0  0  0  0  0
    2.9668   -1.0715    3.2694 C   0  0  0  0  0  0  0  0  0  0  0  0
    3.9853   -0.7538    2.4164 C   0  0  0  0  0  0  0  0  0  0  0  0
    5.6106   -1.2831    2.7815 Cl  0  0  0  0  0  0  0  0  0  0  0  0
    3.6809   -0.0096    1.2734 C   0  0  0  0  0  0  0  0  0  0  0  0
    3.0799    1.5438   -1.1217 C   0  0  0  0  0  0  0  0  0  0  0  0
    4.4136    1.0562   -0.7375 N   0  0  0  0  0  0  0  0  0  0  0  0
    2.9611    2.2262   -2.2163 N   0  0  0  0  0  0  0  0  0  0  0  0
  1  2  1  0
  2  3  2  0
  3  4  1  0
  4  5  1  6
  5  6  2  0
  6  7  1  0
  7  8  2  0
  8  9  1  0
  9 10  1  0
 10 11  1  0
 11 12  2  0
 12 13  1  0
 13 14  2  0
 14 15  1  0
 15 16  2  0
  9 17  2  0
  4 18  1  0
 18 19  1  0
 19 20  2  0
 20 21  1  0
 21 22  2  0
 22 23  1  0
 23 24  1  0
 23 25  2  0
 18 26  1  0
 26 27  1  0
 26 28  2  0
 28  2  1  0
 17  5  1  0
 25 19  1  0
 16 11  1  0
M  END
>  <zinc_id>  (870) 
ZINC000013559314

>  <ortholog_name>  (870) 
DRTS_PLAFK

>  <gene_name>  (870) 
DRTS_PLAFK

>  <affinity>  (870) 
7.22

>  <chembldocid>  (870) 
17662

>  <title>  (870) 
None

>  <reference.pubmed_id>  (870) 
14736247

>  <reference.doi>  (870) 
None

>  <reference.chembl_id>  (870) 
CHEMBL1138835

>  <reference.journal>  (870) 
J. Med. Chem.

>  <reference.year>  (870) 
2004

$$$$

     RDKit          3D

 28 31  0  0  0  0  0  0  0  0999 V2000
    0.4655    1.0283    3.6218 N   0  0  0  0  0  0  0  0  0  0  0  0
   -0.4272    0.7356    2.5144 C   0  0  0  0  0  0  0  0  0  0  0  0
   -0.4213   -0.4225    2.1155 N   0  0  0  0  0  0  0  0  0  0  0  0
   -1.2631   -1.0021    0.9586 C   0  0  2  0  0  0  0  0  0  0  0  0
   -0.1399   -0.9255   -0.1939 C   0  0  0  0  0  0  0  0  0  0  0  0
   -0.5436   -0.4644   -1.3784 C   0  0  0  0  0  0  0  0  0  0  0  0
    0.4035   -0.3833   -2.4083 C   0  0  0  0  0  0  0  0  0  0  0  0
    1.7117   -0.7915   -2.1270 C   0  0  0  0  0  0  0  0  0  0  0  0
    2.0796   -1.2606   -0.8873 C   0  0  0  0  0  0  0  0  0  0  0  0
    3.3925   -1.6480   -0.6778 O   0  0  0  0  0  0  0  0  0  0  0  0
    4.3744   -0.7623   -0.2296 C   0  0  0  0  0  0  0  0  0  0  0  0
    5.1069   -0.0581   -1.1563 C   0  0  0  0  0  0  0  0  0  0  0  0
    6.0965    0.8384   -0.8153 C   0  0  0  0  0  0  0  0  0  0  0  0
    6.3671    1.0407    0.5206 C   0  0  0  0  0  0  0  0  0  0  0  0
    5.6350    0.3368    1.4494 C   0  0  0  0  0  0  0  0  0  0  0  0
    4.6482   -0.5568    1.1004 C   0  0  0  0  0  0  0  0  0  0  0  0
    1.1113   -1.3213    0.0929 C   0  0  0  0  0  0  0  0  0  0  0  0
   -2.1354    0.2265    0.5522 N   0  0  0  0  0  0  0  0  0  0  0  0
   -3.1054   -0.1341   -0.4822 C   0  0  0  0  0  0  0  0  0  0  0  0
   -3.2250   -1.3871   -0.9916 C   0  0  0  0  0  0  0  0  0  0  0  0
   -4.1852   -1.6196   -1.9762 C   0  0  0  0  0  0  0  0  0  0  0  0
   -5.0134   -0.6165   -2.4453 C   0  0  0  0  0  0  0  0  0  0  0  0
   -4.8805    0.6531   -1.9181 C   0  0  0  0  0  0  0  0  0  0  0  0
   -5.9211    1.9030   -2.5108 Cl  0  0  0  0  0  0  0  0  0  0  0  0
   -3.9084    0.8581   -0.9308 C   0  0  0  0  0  0  0  0  0  0  0  0
   -2.0476    1.4770    1.0675 C   0  0  0  0  0  0  0  0  0  0  0  0
   -2.9282    2.4709    0.4763 N   0  0  0  0  0  0  0  0  0  0  0  0
   -1.2472    1.7855    2.0137 N   0  0  0  0  0  0  0  0  0  0  0  0
  1  2  1  0
  2  3  2  0
  3  4  1  0
  4  5  1  6
  5  6  2  0
  6  7  1  0
  7  8  2  0
  8  9  1  0
  9 10  1  0
 10 11  1  0
 11 12  2  0
 12 13  1  0
 13 14  2  0
 14 15  1  0
 15 16  2  0
  9 17  2  0
  4 18  1  0
 18 19  1  0
 19 20  2  0
 20 21  1  0
 21 22  2  0
 22 23  1  0
 23 24  1  0
 23 25  2  0
 18 26  1  0
 26 27  1  0
 26 28  2  0
 28  2  1  0
 17  5  1  0
 25 19  1  0
 16 11  1  0
M  END
>  <zinc_id>  (871) 
ZINC000013559315

>  <ortholog_name>  (871) 
DRTS_PLAFK

>  <gene_name>  (871) 
DRTS_PLAFK

>  <affinity>  (871) 
8.96

>  <chembldocid>  (871) 
17662

>  <title>  (871) 
None

>  <reference.pubmed_id>  (871) 
14736247

>  <reference.doi>  (871) 
None

>  <reference.chembl_id>  (871) 
CHEMBL1138835

>  <reference.journal>  (871) 
J. Med. Chem.

>  <reference.year>  (871) 
2004

$$$$

     RDKit          3D

 28 31  0  0  0  0  0  0  0  0999 V2000
    0.4655    1.0283    3.6218 N   0  0  0  0  0  0  0  0  0  0  0  0
   -0.4272    0.7356    2.5144 C   0  0  0  0  0  0  0  0  0  0  0  0
   -0.4213   -0.4225    2.1155 N   0  0  0  0  0  0  0  0  0  0  0  0
   -1.2631   -1.0021    0.9586 C   0  0  2  0  0  0  0  0  0  0  0  0
   -0.1399   -0.9255   -0.1939 C   0  0  0  0  0  0  0  0  0  0  0  0
   -0.5436   -0.4644   -1.3784 C   0  0  0  0  0  0  0  0  0  0  0  0
    0.4035   -0.3833   -2.4083 C   0  0  0  0  0  0  0  0  0  0  0  0
    1.7117   -0.7915   -2.1270 C   0  0  0  0  0  0  0  0  0  0  0  0
    2.0796   -1.2606   -0.8873 C   0  0  0  0  0  0  0  0  0  0  0  0
    3.3925   -1.6480   -0.6778 O   0  0  0  0  0  0  0  0  0  0  0  0
    4.3744   -0.7623   -0.2296 C   0  0  0  0  0  0  0  0  0  0  0  0
    5.1069   -0.0581   -1.1563 C   0  0  0  0  0  0  0  0  0  0  0  0
    6.0965    0.8384   -0.8153 C   0  0  0  0  0  0  0  0  0  0  0  0
    6.3671    1.0407    0.5206 C   0  0  0  0  0  0  0  0  0  0  0  0
    5.6350    0.3368    1.4494 C   0  0  0  0  0  0  0  0  0  0  0  0
    4.6482   -0.5568    1.1004 C   0  0  0  0  0  0  0  0  0  0  0  0
    1.1113   -1.3213    0.0929 C   0  0  0  0  0  0  0  0  0  0  0  0
   -2.1354    0.2265    0.5522 N   0  0  0  0  0  0  0  0  0  0  0  0
   -3.1054   -0.1341   -0.4822 C   0  0  0  0  0  0  0  0  0  0  0  0
   -3.2250   -1.3871   -0.9916 C   0  0  0  0  0  0  0  0  0  0  0  0
   -4.1852   -1.6196   -1.9762 C   0  0  0  0  0  0  0  0  0  0  0  0
   -5.0134   -0.6165   -2.4453 C   0  0  0  0  0  0  0  0  0  0  0  0
   -4.8805    0.6531   -1.9181 C   0  0  0  0  0  0  0  0  0  0  0  0
   -5.9211    1.9030   -2.5108 Cl  0  0  0  0  0  0  0  0  0  0  0  0
   -3.9084    0.8581   -0.9308 C   0  0  0  0  0  0  0  0  0  0  0  0
   -2.0476    1.4770    1.0675 C   0  0  0  0  0  0  0  0  0  0  0  0
   -2.9282    2.4709    0.4763 N   0  0  0  0  0  0  0  0  0  0  0  0
   -1.2472    1.7855    2.0137 N   0  0  0  0  0  0  0  0  0  0  0  0
  1  2  1  0
  2  3  2  0
  3  4  1  0
  4  5  1  6
  5  6  2  0
  6  7  1  0
  7  8  2  0
  8  9  1  0
  9 10  1  0
 10 11  1  0
 11 12  2  0
 12 13  1  0
 13 14  2  0
 14 15  1  0
 15 16  2  0
  9 17  2  0
  4 18  1  0
 18 19  1  0
 19 20  2  0
 20 21  1  0
 21 22  2  0
 22 23  1  0
 23 24  1  0
 23 25  2  0
 18 26  1  0
 26 27  1  0
 26 28  2  0
 28  2  1  0
 17  5  1  0
 25 19  1  0
 16 11  1  0
M  END
>  <zinc_id>  (872) 
ZINC000013559315

>  <ortholog_name>  (872) 
DRTS_PLAFK

>  <gene_name>  (872) 
DRTS_PLAFK

>  <affinity>  (872) 
8.60

>  <chembldocid>  (872) 
17662

>  <title>  (872) 
None

>  <reference.pubmed_id>  (872) 
14736247

>  <reference.doi>  (872) 
None

>  <reference.chembl_id>  (872) 
CHEMBL1138835

>  <reference.journal>  (872) 
J. Med. Chem.

>  <reference.year>  (872) 
2004

$$$$

     RDKit          3D

 28 31  0  0  0  0  0  0  0  0999 V2000
    0.4655    1.0283    3.6218 N   0  0  0  0  0  0  0  0  0  0  0  0
   -0.4272    0.7356    2.5144 C   0  0  0  0  0  0  0  0  0  0  0  0
   -0.4213   -0.4225    2.1155 N   0  0  0  0  0  0  0  0  0  0  0  0
   -1.2631   -1.0021    0.9586 C   0  0  2  0  0  0  0  0  0  0  0  0
   -0.1399   -0.9255   -0.1939 C   0  0  0  0  0  0  0  0  0  0  0  0
   -0.5436   -0.4644   -1.3784 C   0  0  0  0  0  0  0  0  0  0  0  0
    0.4035   -0.3833   -2.4083 C   0  0  0  0  0  0  0  0  0  0  0  0
    1.7117   -0.7915   -2.1270 C   0  0  0  0  0  0  0  0  0  0  0  0
    2.0796   -1.2606   -0.8873 C   0  0  0  0  0  0  0  0  0  0  0  0
    3.3925   -1.6480   -0.6778 O   0  0  0  0  0  0  0  0  0  0  0  0
    4.3744   -0.7623   -0.2296 C   0  0  0  0  0  0  0  0  0  0  0  0
    5.1069   -0.0581   -1.1563 C   0  0  0  0  0  0  0  0  0  0  0  0
    6.0965    0.8384   -0.8153 C   0  0  0  0  0  0  0  0  0  0  0  0
    6.3671    1.0407    0.5206 C   0  0  0  0  0  0  0  0  0  0  0  0
    5.6350    0.3368    1.4494 C   0  0  0  0  0  0  0  0  0  0  0  0
    4.6482   -0.5568    1.1004 C   0  0  0  0  0  0  0  0  0  0  0  0
    1.1113   -1.3213    0.0929 C   0  0  0  0  0  0  0  0  0  0  0  0
   -2.1354    0.2265    0.5522 N   0  0  0  0  0  0  0  0  0  0  0  0
   -3.1054   -0.1341   -0.4822 C   0  0  0  0  0  0  0  0  0  0  0  0
   -3.2250   -1.3871   -0.9916 C   0  0  0  0  0  0  0  0  0  0  0  0
   -4.1852   -1.6196   -1.9762 C   0  0  0  0  0  0  0  0  0  0  0  0
   -5.0134   -0.6165   -2.4453 C   0  0  0  0  0  0  0  0  0  0  0  0
   -4.8805    0.6531   -1.9181 C   0  0  0  0  0  0  0  0  0  0  0  0
   -5.9211    1.9030   -2.5108 Cl  0  0  0  0  0  0  0  0  0  0  0  0
   -3.9084    0.8581   -0.9308 C   0  0  0  0  0  0  0  0  0  0  0  0
   -2.0476    1.4770    1.0675 C   0  0  0  0  0  0  0  0  0  0  0  0
   -2.9282    2.4709    0.4763 N   0  0  0  0  0  0  0  0  0  0  0  0
   -1.2472    1.7855    2.0137 N   0  0  0  0  0  0  0  0  0  0  0  0
  1  2  1  0
  2  3  2  0
  3  4  1  0
  4  5  1  6
  5  6  2  0
  6  7  1  0
  7  8  2  0
  8  9  1  0
  9 10  1  0
 10 11  1  0
 11 12  2  0
 12 13  1  0
 13 14  2  0
 14 15  1  0
 15 16  2  0
  9 17  2  0
  4 18  1  0
 18 19  1  0
 19 20  2  0
 20 21  1  0
 21 22  2  0
 22 23  1  0
 23 24  1  0
 23 25  2  0
 18 26  1  0
 26 27  1  0
 26 28  2  0
 28  2  1  0
 17  5  1  0
 25 19  1  0
 16 11  1  0
M  END
>  <zinc_id>  (873) 
ZINC000013559315

>  <ortholog_name>  (873) 
DRTS_PLAFK

>  <gene_name>  (873) 
DRTS_PLAFK

>  <affinity>  (873) 
5.66

>  <chembldocid>  (873) 
17662

>  <title>  (873) 
None

>  <reference.pubmed_id>  (873) 
14736247

>  <reference.doi>  (873) 
None

>  <reference.chembl_id>  (873) 
CHEMBL1138835

>  <reference.journal>  (873) 
J. Med. Chem.

>  <reference.year>  (873) 
2004

$$$$

     RDKit          3D

 28 31  0  0  0  0  0  0  0  0999 V2000
    0.4655    1.0283    3.6218 N   0  0  0  0  0  0  0  0  0  0  0  0
   -0.4272    0.7356    2.5144 C   0  0  0  0  0  0  0  0  0  0  0  0
   -0.4213   -0.4225    2.1155 N   0  0  0  0  0  0  0  0  0  0  0  0
   -1.2631   -1.0021    0.9586 C   0  0  2  0  0  0  0  0  0  0  0  0
   -0.1399   -0.9255   -0.1939 C   0  0  0  0  0  0  0  0  0  0  0  0
   -0.5436   -0.4644   -1.3784 C   0  0  0  0  0  0  0  0  0  0  0  0
    0.4035   -0.3833   -2.4083 C   0  0  0  0  0  0  0  0  0  0  0  0
    1.7117   -0.7915   -2.1270 C   0  0  0  0  0  0  0  0  0  0  0  0
    2.0796   -1.2606   -0.8873 C   0  0  0  0  0  0  0  0  0  0  0  0
    3.3925   -1.6480   -0.6778 O   0  0  0  0  0  0  0  0  0  0  0  0
    4.3744   -0.7623   -0.2296 C   0  0  0  0  0  0  0  0  0  0  0  0
    5.1069   -0.0581   -1.1563 C   0  0  0  0  0  0  0  0  0  0  0  0
    6.0965    0.8384   -0.8153 C   0  0  0  0  0  0  0  0  0  0  0  0
    6.3671    1.0407    0.5206 C   0  0  0  0  0  0  0  0  0  0  0  0
    5.6350    0.3368    1.4494 C   0  0  0  0  0  0  0  0  0  0  0  0
    4.6482   -0.5568    1.1004 C   0  0  0  0  0  0  0  0  0  0  0  0
    1.1113   -1.3213    0.0929 C   0  0  0  0  0  0  0  0  0  0  0  0
   -2.1354    0.2265    0.5522 N   0  0  0  0  0  0  0  0  0  0  0  0
   -3.1054   -0.1341   -0.4822 C   0  0  0  0  0  0  0  0  0  0  0  0
   -3.2250   -1.3871   -0.9916 C   0  0  0  0  0  0  0  0  0  0  0  0
   -4.1852   -1.6196   -1.9762 C   0  0  0  0  0  0  0  0  0  0  0  0
   -5.0134   -0.6165   -2.4453 C   0  0  0  0  0  0  0  0  0  0  0  0
   -4.8805    0.6531   -1.9181 C   0  0  0  0  0  0  0  0  0  0  0  0
   -5.9211    1.9030   -2.5108 Cl  0  0  0  0  0  0  0  0  0  0  0  0
   -3.9084    0.8581   -0.9308 C   0  0  0  0  0  0  0  0  0  0  0  0
   -2.0476    1.4770    1.0675 C   0  0  0  0  0  0  0  0  0  0  0  0
   -2.9282    2.4709    0.4763 N   0  0  0  0  0  0  0  0  0  0  0  0
   -1.2472    1.7855    2.0137 N   0  0  0  0  0  0  0  0  0  0  0  0
  1  2  1  0
  2  3  2  0
  3  4  1  0
  4  5  1  6
  5  6  2  0
  6  7  1  0
  7  8  2  0
  8  9  1  0
  9 10  1  0
 10 11  1  0
 11 12  2  0
 12 13  1  0
 13 14  2  0
 14 15  1  0
 15 16  2  0
  9 17  2  0
  4 18  1  0
 18 19  1  0
 19 20  2  0
 20 21  1  0
 21 22  2  0
 22 23  1  0
 23 24  1  0
 23 25  2  0
 18 26  1  0
 26 27  1  0
 26 28  2  0
 28  2  1  0
 17  5  1  0
 25 19  1  0
 16 11  1  0
M  END
>  <zinc_id>  (874) 
ZINC000013559315

>  <ortholog_name>  (874) 
DRTS_PLAFK

>  <gene_name>  (874) 
DRTS_PLAFK

>  <affinity>  (874) 
5.57

>  <chembldocid>  (874) 
17662

>  <title>  (874) 
None

>  <reference.pubmed_id>  (874) 
14736247

>  <reference.doi>  (874) 
None

>  <reference.chembl_id>  (874) 
CHEMBL1138835

>  <reference.journal>  (874) 
J. Med. Chem.

>  <reference.year>  (874) 
2004

$$$$

     RDKit          3D

 28 31  0  0  0  0  0  0  0  0999 V2000
    0.4655    1.0283    3.6218 N   0  0  0  0  0  0  0  0  0  0  0  0
   -0.4272    0.7356    2.5144 C   0  0  0  0  0  0  0  0  0  0  0  0
   -0.4213   -0.4225    2.1155 N   0  0  0  0  0  0  0  0  0  0  0  0
   -1.2631   -1.0021    0.9586 C   0  0  2  0  0  0  0  0  0  0  0  0
   -0.1399   -0.9255   -0.1939 C   0  0  0  0  0  0  0  0  0  0  0  0
   -0.5436   -0.4644   -1.3784 C   0  0  0  0  0  0  0  0  0  0  0  0
    0.4035   -0.3833   -2.4083 C   0  0  0  0  0  0  0  0  0  0  0  0
    1.7117   -0.7915   -2.1270 C   0  0  0  0  0  0  0  0  0  0  0  0
    2.0796   -1.2606   -0.8873 C   0  0  0  0  0  0  0  0  0  0  0  0
    3.3925   -1.6480   -0.6778 O   0  0  0  0  0  0  0  0  0  0  0  0
    4.3744   -0.7623   -0.2296 C   0  0  0  0  0  0  0  0  0  0  0  0
    5.1069   -0.0581   -1.1563 C   0  0  0  0  0  0  0  0  0  0  0  0
    6.0965    0.8384   -0.8153 C   0  0  0  0  0  0  0  0  0  0  0  0
    6.3671    1.0407    0.5206 C   0  0  0  0  0  0  0  0  0  0  0  0
    5.6350    0.3368    1.4494 C   0  0  0  0  0  0  0  0  0  0  0  0
    4.6482   -0.5568    1.1004 C   0  0  0  0  0  0  0  0  0  0  0  0
    1.1113   -1.3213    0.0929 C   0  0  0  0  0  0  0  0  0  0  0  0
   -2.1354    0.2265    0.5522 N   0  0  0  0  0  0  0  0  0  0  0  0
   -3.1054   -0.1341   -0.4822 C   0  0  0  0  0  0  0  0  0  0  0  0
   -3.2250   -1.3871   -0.9916 C   0  0  0  0  0  0  0  0  0  0  0  0
   -4.1852   -1.6196   -1.9762 C   0  0  0  0  0  0  0  0  0  0  0  0
   -5.0134   -0.6165   -2.4453 C   0  0  0  0  0  0  0  0  0  0  0  0
   -4.8805    0.6531   -1.9181 C   0  0  0  0  0  0  0  0  0  0  0  0
   -5.9211    1.9030   -2.5108 Cl  0  0  0  0  0  0  0  0  0  0  0  0
   -3.9084    0.8581   -0.9308 C   0  0  0  0  0  0  0  0  0  0  0  0
   -2.0476    1.4770    1.0675 C   0  0  0  0  0  0  0  0  0  0  0  0
   -2.9282    2.4709    0.4763 N   0  0  0  0  0  0  0  0  0  0  0  0
   -1.2472    1.7855    2.0137 N   0  0  0  0  0  0  0  0  0  0  0  0
  1  2  1  0
  2  3  2  0
  3  4  1  0
  4  5  1  6
  5  6  2  0
  6  7  1  0
  7  8  2  0
  8  9  1  0
  9 10  1  0
 10 11  1  0
 11 12  2  0
 12 13  1  0
 13 14  2  0
 14 15  1  0
 15 16  2  0
  9 17  2  0
  4 18  1  0
 18 19  1  0
 19 20  2  0
 20 21  1  0
 21 22  2  0
 22 23  1  0
 23 24  1  0
 23 25  2  0
 18 26  1  0
 26 27  1  0
 26 28  2  0
 28  2  1  0
 17  5  1  0
 25 19  1  0
 16 11  1  0
M  END
>  <zinc_id>  (875) 
ZINC000013559315

>  <ortholog_name>  (875) 
DRTS_PLAFK

>  <gene_name>  (875) 
DRTS_PLAFK

>  <affinity>  (875) 
8.52

>  <chembldocid>  (875) 
17662

>  <title>  (875) 
None

>  <reference.pubmed_id>  (875) 
14736247

>  <reference.doi>  (875) 
None

>  <reference.chembl_id>  (875) 
CHEMBL1138835

>  <reference.journal>  (875) 
J. Med. Chem.

>  <reference.year>  (875) 
2004

$$$$

     RDKit          3D

 28 31  0  0  0  0  0  0  0  0999 V2000
    0.4655    1.0283    3.6218 N   0  0  0  0  0  0  0  0  0  0  0  0
   -0.4272    0.7356    2.5144 C   0  0  0  0  0  0  0  0  0  0  0  0
   -0.4213   -0.4225    2.1155 N   0  0  0  0  0  0  0  0  0  0  0  0
   -1.2631   -1.0021    0.9586 C   0  0  2  0  0  0  0  0  0  0  0  0
   -0.1399   -0.9255   -0.1939 C   0  0  0  0  0  0  0  0  0  0  0  0
   -0.5436   -0.4644   -1.3784 C   0  0  0  0  0  0  0  0  0  0  0  0
    0.4035   -0.3833   -2.4083 C   0  0  0  0  0  0  0  0  0  0  0  0
    1.7117   -0.7915   -2.1270 C   0  0  0  0  0  0  0  0  0  0  0  0
    2.0796   -1.2606   -0.8873 C   0  0  0  0  0  0  0  0  0  0  0  0
    3.3925   -1.6480   -0.6778 O   0  0  0  0  0  0  0  0  0  0  0  0
    4.3744   -0.7623   -0.2296 C   0  0  0  0  0  0  0  0  0  0  0  0
    5.1069   -0.0581   -1.1563 C   0  0  0  0  0  0  0  0  0  0  0  0
    6.0965    0.8384   -0.8153 C   0  0  0  0  0  0  0  0  0  0  0  0
    6.3671    1.0407    0.5206 C   0  0  0  0  0  0  0  0  0  0  0  0
    5.6350    0.3368    1.4494 C   0  0  0  0  0  0  0  0  0  0  0  0
    4.6482   -0.5568    1.1004 C   0  0  0  0  0  0  0  0  0  0  0  0
    1.1113   -1.3213    0.0929 C   0  0  0  0  0  0  0  0  0  0  0  0
   -2.1354    0.2265    0.5522 N   0  0  0  0  0  0  0  0  0  0  0  0
   -3.1054   -0.1341   -0.4822 C   0  0  0  0  0  0  0  0  0  0  0  0
   -3.2250   -1.3871   -0.9916 C   0  0  0  0  0  0  0  0  0  0  0  0
   -4.1852   -1.6196   -1.9762 C   0  0  0  0  0  0  0  0  0  0  0  0
   -5.0134   -0.6165   -2.4453 C   0  0  0  0  0  0  0  0  0  0  0  0
   -4.8805    0.6531   -1.9181 C   0  0  0  0  0  0  0  0  0  0  0  0
   -5.9211    1.9030   -2.5108 Cl  0  0  0  0  0  0  0  0  0  0  0  0
   -3.9084    0.8581   -0.9308 C   0  0  0  0  0  0  0  0  0  0  0  0
   -2.0476    1.4770    1.0675 C   0  0  0  0  0  0  0  0  0  0  0  0
   -2.9282    2.4709    0.4763 N   0  0  0  0  0  0  0  0  0  0  0  0
   -1.2472    1.7855    2.0137 N   0  0  0  0  0  0  0  0  0  0  0  0
  1  2  1  0
  2  3  2  0
  3  4  1  0
  4  5  1  6
  5  6  2  0
  6  7  1  0
  7  8  2  0
  8  9  1  0
  9 10  1  0
 10 11  1  0
 11 12  2  0
 12 13  1  0
 13 14  2  0
 14 15  1  0
 15 16  2  0
  9 17  2  0
  4 18  1  0
 18 19  1  0
 19 20  2  0
 20 21  1  0
 21 22  2  0
 22 23  1  0
 23 24  1  0
 23 25  2  0
 18 26  1  0
 26 27  1  0
 26 28  2  0
 28  2  1  0
 17  5  1  0
 25 19  1  0
 16 11  1  0
M  END
>  <zinc_id>  (876) 
ZINC000013559315

>  <ortholog_name>  (876) 
DRTS_PLAFK

>  <gene_name>  (876) 
DRTS_PLAFK

>  <affinity>  (876) 
5.47

>  <chembldocid>  (876) 
17662

>  <title>  (876) 
None

>  <reference.pubmed_id>  (876) 
14736247

>  <reference.doi>  (876) 
None

>  <reference.chembl_id>  (876) 
CHEMBL1138835

>  <reference.journal>  (876) 
J. Med. Chem.

>  <reference.year>  (876) 
2004

$$$$

     RDKit          3D

 28 31  0  0  0  0  0  0  0  0999 V2000
    0.4655    1.0283    3.6218 N   0  0  0  0  0  0  0  0  0  0  0  0
   -0.4272    0.7356    2.5144 C   0  0  0  0  0  0  0  0  0  0  0  0
   -0.4213   -0.4225    2.1155 N   0  0  0  0  0  0  0  0  0  0  0  0
   -1.2631   -1.0021    0.9586 C   0  0  2  0  0  0  0  0  0  0  0  0
   -0.1399   -0.9255   -0.1939 C   0  0  0  0  0  0  0  0  0  0  0  0
   -0.5436   -0.4644   -1.3784 C   0  0  0  0  0  0  0  0  0  0  0  0
    0.4035   -0.3833   -2.4083 C   0  0  0  0  0  0  0  0  0  0  0  0
    1.7117   -0.7915   -2.1270 C   0  0  0  0  0  0  0  0  0  0  0  0
    2.0796   -1.2606   -0.8873 C   0  0  0  0  0  0  0  0  0  0  0  0
    3.3925   -1.6480   -0.6778 O   0  0  0  0  0  0  0  0  0  0  0  0
    4.3744   -0.7623   -0.2296 C   0  0  0  0  0  0  0  0  0  0  0  0
    5.1069   -0.0581   -1.1563 C   0  0  0  0  0  0  0  0  0  0  0  0
    6.0965    0.8384   -0.8153 C   0  0  0  0  0  0  0  0  0  0  0  0
    6.3671    1.0407    0.5206 C   0  0  0  0  0  0  0  0  0  0  0  0
    5.6350    0.3368    1.4494 C   0  0  0  0  0  0  0  0  0  0  0  0
    4.6482   -0.5568    1.1004 C   0  0  0  0  0  0  0  0  0  0  0  0
    1.1113   -1.3213    0.0929 C   0  0  0  0  0  0  0  0  0  0  0  0
   -2.1354    0.2265    0.5522 N   0  0  0  0  0  0  0  0  0  0  0  0
   -3.1054   -0.1341   -0.4822 C   0  0  0  0  0  0  0  0  0  0  0  0
   -3.2250   -1.3871   -0.9916 C   0  0  0  0  0  0  0  0  0  0  0  0
   -4.1852   -1.6196   -1.9762 C   0  0  0  0  0  0  0  0  0  0  0  0
   -5.0134   -0.6165   -2.4453 C   0  0  0  0  0  0  0  0  0  0  0  0
   -4.8805    0.6531   -1.9181 C   0  0  0  0  0  0  0  0  0  0  0  0
   -5.9211    1.9030   -2.5108 Cl  0  0  0  0  0  0  0  0  0  0  0  0
   -3.9084    0.8581   -0.9308 C   0  0  0  0  0  0  0  0  0  0  0  0
   -2.0476    1.4770    1.0675 C   0  0  0  0  0  0  0  0  0  0  0  0
   -2.9282    2.4709    0.4763 N   0  0  0  0  0  0  0  0  0  0  0  0
   -1.2472    1.7855    2.0137 N   0  0  0  0  0  0  0  0  0  0  0  0
  1  2  1  0
  2  3  2  0
  3  4  1  0
  4  5  1  6
  5  6  2  0
  6  7  1  0
  7  8  2  0
  8  9  1  0
  9 10  1  0
 10 11  1  0
 11 12  2  0
 12 13  1  0
 13 14  2  0
 14 15  1  0
 15 16  2  0
  9 17  2  0
  4 18  1  0
 18 19  1  0
 19 20  2  0
 20 21  1  0
 21 22  2  0
 22 23  1  0
 23 24  1  0
 23 25  2  0
 18 26  1  0
 26 27  1  0
 26 28  2  0
 28  2  1  0
 17  5  1  0
 25 19  1  0
 16 11  1  0
M  END
>  <zinc_id>  (877) 
ZINC000013559315

>  <ortholog_name>  (877) 
DRTS_PLAFK

>  <gene_name>  (877) 
DRTS_PLAFK

>  <affinity>  (877) 
5.46

>  <chembldocid>  (877) 
17662

>  <title>  (877) 
None

>  <reference.pubmed_id>  (877) 
14736247

>  <reference.doi>  (877) 
None

>  <reference.chembl_id>  (877) 
CHEMBL1138835

>  <reference.journal>  (877) 
J. Med. Chem.

>  <reference.year>  (877) 
2004

$$$$

     RDKit          3D

 28 31  0  0  0  0  0  0  0  0999 V2000
    0.4655    1.0283    3.6218 N   0  0  0  0  0  0  0  0  0  0  0  0
   -0.4272    0.7356    2.5144 C   0  0  0  0  0  0  0  0  0  0  0  0
   -0.4213   -0.4225    2.1155 N   0  0  0  0  0  0  0  0  0  0  0  0
   -1.2631   -1.0021    0.9586 C   0  0  2  0  0  0  0  0  0  0  0  0
   -0.1399   -0.9255   -0.1939 C   0  0  0  0  0  0  0  0  0  0  0  0
   -0.5436   -0.4644   -1.3784 C   0  0  0  0  0  0  0  0  0  0  0  0
    0.4035   -0.3833   -2.4083 C   0  0  0  0  0  0  0  0  0  0  0  0
    1.7117   -0.7915   -2.1270 C   0  0  0  0  0  0  0  0  0  0  0  0
    2.0796   -1.2606   -0.8873 C   0  0  0  0  0  0  0  0  0  0  0  0
    3.3925   -1.6480   -0.6778 O   0  0  0  0  0  0  0  0  0  0  0  0
    4.3744   -0.7623   -0.2296 C   0  0  0  0  0  0  0  0  0  0  0  0
    5.1069   -0.0581   -1.1563 C   0  0  0  0  0  0  0  0  0  0  0  0
    6.0965    0.8384   -0.8153 C   0  0  0  0  0  0  0  0  0  0  0  0
    6.3671    1.0407    0.5206 C   0  0  0  0  0  0  0  0  0  0  0  0
    5.6350    0.3368    1.4494 C   0  0  0  0  0  0  0  0  0  0  0  0
    4.6482   -0.5568    1.1004 C   0  0  0  0  0  0  0  0  0  0  0  0
    1.1113   -1.3213    0.0929 C   0  0  0  0  0  0  0  0  0  0  0  0
   -2.1354    0.2265    0.5522 N   0  0  0  0  0  0  0  0  0  0  0  0
   -3.1054   -0.1341   -0.4822 C   0  0  0  0  0  0  0  0  0  0  0  0
   -3.2250   -1.3871   -0.9916 C   0  0  0  0  0  0  0  0  0  0  0  0
   -4.1852   -1.6196   -1.9762 C   0  0  0  0  0  0  0  0  0  0  0  0
   -5.0134   -0.6165   -2.4453 C   0  0  0  0  0  0  0  0  0  0  0  0
   -4.8805    0.6531   -1.9181 C   0  0  0  0  0  0  0  0  0  0  0  0
   -5.9211    1.9030   -2.5108 Cl  0  0  0  0  0  0  0  0  0  0  0  0
   -3.9084    0.8581   -0.9308 C   0  0  0  0  0  0  0  0  0  0  0  0
   -2.0476    1.4770    1.0675 C   0  0  0  0  0  0  0  0  0  0  0  0
   -2.9282    2.4709    0.4763 N   0  0  0  0  0  0  0  0  0  0  0  0
   -1.2472    1.7855    2.0137 N   0  0  0  0  0  0  0  0  0  0  0  0
  1  2  1  0
  2  3  2  0
  3  4  1  0
  4  5  1  6
  5  6  2  0
  6  7  1  0
  7  8  2  0
  8  9  1  0
  9 10  1  0
 10 11  1  0
 11 12  2  0
 12 13  1  0
 13 14  2  0
 14 15  1  0
 15 16  2  0
  9 17  2  0
  4 18  1  0
 18 19  1  0
 19 20  2  0
 20 21  1  0
 21 22  2  0
 22 23  1  0
 23 24  1  0
 23 25  2  0
 18 26  1  0
 26 27  1  0
 26 28  2  0
 28  2  1  0
 17  5  1  0
 25 19  1  0
 16 11  1  0
M  END
>  <zinc_id>  (878) 
ZINC000013559315

>  <ortholog_name>  (878) 
DRTS_PLAFK

>  <gene_name>  (878) 
DRTS_PLAFK

>  <affinity>  (878) 
5.44

>  <chembldocid>  (878) 
17662

>  <title>  (878) 
None

>  <reference.pubmed_id>  (878) 
14736247

>  <reference.doi>  (878) 
None

>  <reference.chembl_id>  (878) 
CHEMBL1138835

>  <reference.journal>  (878) 
J. Med. Chem.

>  <reference.year>  (878) 
2004

$$$$

     RDKit          3D

 28 31  0  0  0  0  0  0  0  0999 V2000
    0.4655    1.0283    3.6218 N   0  0  0  0  0  0  0  0  0  0  0  0
   -0.4272    0.7356    2.5144 C   0  0  0  0  0  0  0  0  0  0  0  0
   -0.4213   -0.4225    2.1155 N   0  0  0  0  0  0  0  0  0  0  0  0
   -1.2631   -1.0021    0.9586 C   0  0  2  0  0  0  0  0  0  0  0  0
   -0.1399   -0.9255   -0.1939 C   0  0  0  0  0  0  0  0  0  0  0  0
   -0.5436   -0.4644   -1.3784 C   0  0  0  0  0  0  0  0  0  0  0  0
    0.4035   -0.3833   -2.4083 C   0  0  0  0  0  0  0  0  0  0  0  0
    1.7117   -0.7915   -2.1270 C   0  0  0  0  0  0  0  0  0  0  0  0
    2.0796   -1.2606   -0.8873 C   0  0  0  0  0  0  0  0  0  0  0  0
    3.3925   -1.6480   -0.6778 O   0  0  0  0  0  0  0  0  0  0  0  0
    4.3744   -0.7623   -0.2296 C   0  0  0  0  0  0  0  0  0  0  0  0
    5.1069   -0.0581   -1.1563 C   0  0  0  0  0  0  0  0  0  0  0  0
    6.0965    0.8384   -0.8153 C   0  0  0  0  0  0  0  0  0  0  0  0
    6.3671    1.0407    0.5206 C   0  0  0  0  0  0  0  0  0  0  0  0
    5.6350    0.3368    1.4494 C   0  0  0  0  0  0  0  0  0  0  0  0
    4.6482   -0.5568    1.1004 C   0  0  0  0  0  0  0  0  0  0  0  0
    1.1113   -1.3213    0.0929 C   0  0  0  0  0  0  0  0  0  0  0  0
   -2.1354    0.2265    0.5522 N   0  0  0  0  0  0  0  0  0  0  0  0
   -3.1054   -0.1341   -0.4822 C   0  0  0  0  0  0  0  0  0  0  0  0
   -3.2250   -1.3871   -0.9916 C   0  0  0  0  0  0  0  0  0  0  0  0
   -4.1852   -1.6196   -1.9762 C   0  0  0  0  0  0  0  0  0  0  0  0
   -5.0134   -0.6165   -2.4453 C   0  0  0  0  0  0  0  0  0  0  0  0
   -4.8805    0.6531   -1.9181 C   0  0  0  0  0  0  0  0  0  0  0  0
   -5.9211    1.9030   -2.5108 Cl  0  0  0  0  0  0  0  0  0  0  0  0
   -3.9084    0.8581   -0.9308 C   0  0  0  0  0  0  0  0  0  0  0  0
   -2.0476    1.4770    1.0675 C   0  0  0  0  0  0  0  0  0  0  0  0
   -2.9282    2.4709    0.4763 N   0  0  0  0  0  0  0  0  0  0  0  0
   -1.2472    1.7855    2.0137 N   0  0  0  0  0  0  0  0  0  0  0  0
  1  2  1  0
  2  3  2  0
  3  4  1  0
  4  5  1  6
  5  6  2  0
  6  7  1  0
  7  8  2  0
  8  9  1  0
  9 10  1  0
 10 11  1  0
 11 12  2  0
 12 13  1  0
 13 14  2  0
 14 15  1  0
 15 16  2  0
  9 17  2  0
  4 18  1  0
 18 19  1  0
 19 20  2  0
 20 21  1  0
 21 22  2  0
 22 23  1  0
 23 24  1  0
 23 25  2  0
 18 26  1  0
 26 27  1  0
 26 28  2  0
 28  2  1  0
 17  5  1  0
 25 19  1  0
 16 11  1  0
M  END
>  <zinc_id>  (879) 
ZINC000013559315

>  <ortholog_name>  (879) 
DRTS_PLAFK

>  <gene_name>  (879) 
DRTS_PLAFK

>  <affinity>  (879) 
8.24

>  <chembldocid>  (879) 
17662

>  <title>  (879) 
None

>  <reference.pubmed_id>  (879) 
14736247

>  <reference.doi>  (879) 
None

>  <reference.chembl_id>  (879) 
CHEMBL1138835

>  <reference.journal>  (879) 
J. Med. Chem.

>  <reference.year>  (879) 
2004

$$$$

     RDKit          3D

 28 31  0  0  0  0  0  0  0  0999 V2000
    0.4655    1.0283    3.6218 N   0  0  0  0  0  0  0  0  0  0  0  0
   -0.4272    0.7356    2.5144 C   0  0  0  0  0  0  0  0  0  0  0  0
   -0.4213   -0.4225    2.1155 N   0  0  0  0  0  0  0  0  0  0  0  0
   -1.2631   -1.0021    0.9586 C   0  0  2  0  0  0  0  0  0  0  0  0
   -0.1399   -0.9255   -0.1939 C   0  0  0  0  0  0  0  0  0  0  0  0
   -0.5436   -0.4644   -1.3784 C   0  0  0  0  0  0  0  0  0  0  0  0
    0.4035   -0.3833   -2.4083 C   0  0  0  0  0  0  0  0  0  0  0  0
    1.7117   -0.7915   -2.1270 C   0  0  0  0  0  0  0  0  0  0  0  0
    2.0796   -1.2606   -0.8873 C   0  0  0  0  0  0  0  0  0  0  0  0
    3.3925   -1.6480   -0.6778 O   0  0  0  0  0  0  0  0  0  0  0  0
    4.3744   -0.7623   -0.2296 C   0  0  0  0  0  0  0  0  0  0  0  0
    5.1069   -0.0581   -1.1563 C   0  0  0  0  0  0  0  0  0  0  0  0
    6.0965    0.8384   -0.8153 C   0  0  0  0  0  0  0  0  0  0  0  0
    6.3671    1.0407    0.5206 C   0  0  0  0  0  0  0  0  0  0  0  0
    5.6350    0.3368    1.4494 C   0  0  0  0  0  0  0  0  0  0  0  0
    4.6482   -0.5568    1.1004 C   0  0  0  0  0  0  0  0  0  0  0  0
    1.1113   -1.3213    0.0929 C   0  0  0  0  0  0  0  0  0  0  0  0
   -2.1354    0.2265    0.5522 N   0  0  0  0  0  0  0  0  0  0  0  0
   -3.1054   -0.1341   -0.4822 C   0  0  0  0  0  0  0  0  0  0  0  0
   -3.2250   -1.3871   -0.9916 C   0  0  0  0  0  0  0  0  0  0  0  0
   -4.1852   -1.6196   -1.9762 C   0  0  0  0  0  0  0  0  0  0  0  0
   -5.0134   -0.6165   -2.4453 C   0  0  0  0  0  0  0  0  0  0  0  0
   -4.8805    0.6531   -1.9181 C   0  0  0  0  0  0  0  0  0  0  0  0
   -5.9211    1.9030   -2.5108 Cl  0  0  0  0  0  0  0  0  0  0  0  0
   -3.9084    0.8581   -0.9308 C   0  0  0  0  0  0  0  0  0  0  0  0
   -2.0476    1.4770    1.0675 C   0  0  0  0  0  0  0  0  0  0  0  0
   -2.9282    2.4709    0.4763 N   0  0  0  0  0  0  0  0  0  0  0  0
   -1.2472    1.7855    2.0137 N   0  0  0  0  0  0  0  0  0  0  0  0
  1  2  1  0
  2  3  2  0
  3  4  1  0
  4  5  1  6
  5  6  2  0
  6  7  1  0
  7  8  2  0
  8  9  1  0
  9 10  1  0
 10 11  1  0
 11 12  2  0
 12 13  1  0
 13 14  2  0
 14 15  1  0
 15 16  2  0
  9 17  2  0
  4 18  1  0
 18 19  1  0
 19 20  2  0
 20 21  1  0
 21 22  2  0
 22 23  1  0
 23 24  1  0
 23 25  2  0
 18 26  1  0
 26 27  1  0
 26 28  2  0
 28  2  1  0
 17  5  1  0
 25 19  1  0
 16 11  1  0
M  END
>  <zinc_id>  (880) 
ZINC000013559315

>  <ortholog_name>  (880) 
DRTS_PLAFK

>  <gene_name>  (880) 
DRTS_PLAFK

>  <affinity>  (880) 
7.22

>  <chembldocid>  (880) 
17662

>  <title>  (880) 
None

>  <reference.pubmed_id>  (880) 
14736247

>  <reference.doi>  (880) 
None

>  <reference.chembl_id>  (880) 
CHEMBL1138835

>  <reference.journal>  (880) 
J. Med. Chem.

>  <reference.year>  (880) 
2004

$$$$

     RDKit          3D

 29 32  0  0  0  0  0  0  0  0999 V2000
    2.2180    5.3482   -0.1907 N   0  0  0  0  0  0  0  0  0  0  0  0
    2.2654    3.9025   -0.1228 C   0  0  0  0  0  0  0  0  0  0  0  0
    1.8225    3.2973    0.8270 N   0  0  0  0  0  0  0  0  0  0  0  0
    1.7626    1.8024    1.1139 C   0  0  1  0  0  0  0  0  0  0  0  0
    0.2410    1.5383    0.6198 C   0  0  0  0  0  0  0  0  0  0  0  0
   -0.2165    2.0437   -0.5102 C   0  0  0  0  0  0  0  0  0  0  0  0
   -1.5220    1.7802   -0.8721 C   0  0  0  0  0  0  0  0  0  0  0  0
   -2.3047    1.0040   -0.0516 C   0  0  0  0  0  0  0  0  0  0  0  0
   -1.8409    0.4796    1.1141 C   0  0  0  0  0  0  0  0  0  0  0  0
   -2.5381   -0.3001    1.9933 O   0  0  0  0  0  0  0  0  0  0  0  0
   -3.8615   -0.7186    1.8793 C   0  0  0  0  0  0  0  0  0  0  0  0
   -4.0402   -1.5223    0.6469 C   0  0  0  0  0  0  0  0  0  0  0  0
   -4.4426   -0.8757   -0.4978 C   0  0  0  0  0  0  0  0  0  0  0  0
   -4.6045   -1.6378   -1.6370 C   0  0  0  0  0  0  0  0  0  0  0  0
   -4.3742   -2.9912   -1.6348 C   0  0  0  0  0  0  0  0  0  0  0  0
   -3.9679   -3.6533   -0.4853 C   0  0  0  0  0  0  0  0  0  0  0  0
   -3.8118   -2.8674    0.6470 C   0  0  0  0  0  0  0  0  0  0  0  0
   -0.5157    0.7652    1.4511 C   0  0  0  0  0  0  0  0  0  0  0  0
    2.4365    1.1371   -0.1528 N   0  0  0  0  0  0  0  0  0  0  0  0
    2.4742   -0.2857   -0.0679 C   0  0  0  0  0  0  0  0  0  0  0  0
    3.5554   -0.8911    0.5061 C   0  0  0  0  0  0  0  0  0  0  0  0
    3.6408   -2.2736    0.6132 C   0  0  0  0  0  0  0  0  0  0  0  0
    2.6185   -3.0497    0.1330 C   0  0  0  0  0  0  0  0  0  0  0  0
    2.7685   -4.7845    0.2891 Cl  0  0  0  0  0  0  0  0  0  0  0  0
    1.5313   -2.4512   -0.4437 C   0  0  0  0  0  0  0  0  0  0  0  0
    1.4639   -1.0651   -0.5419 C   0  0  0  0  0  0  0  0  0  0  0  0
    2.9108    1.8885   -1.1812 C   0  0  0  0  0  0  0  0  0  0  0  0
    3.5076    1.2436   -2.2967 N   0  0  0  0  0  0  0  0  0  0  0  0
    2.8235    3.1364   -1.1475 N   0  0  0  0  0  0  0  0  0  0  0  0
  1  2  1  0
  2  3  2  0
  3  4  1  0
  4  5  1  6
  5  6  2  0
  6  7  1  0
  7  8  2  0
  8  9  1  0
  9 10  1  0
 10 11  1  0
 11 12  1  0
 12 13  2  0
 13 14  1  0
 14 15  2  0
 15 16  1  0
 16 17  2  0
  9 18  2  0
  4 19  1  0
 19 20  1  0
 20 21  2  0
 21 22  1  0
 22 23  2  0
 23 24  1  0
 23 25  1  0
 25 26  2  0
 19 27  1  0
 27 28  1  0
 27 29  2  0
 29  2  1  0
 18  5  1  0
 26 20  1  0
 17 12  1  0
M  END
>  <zinc_id>  (881) 
ZINC000013559316

>  <ortholog_name>  (881) 
DRTS_PLAFK

>  <gene_name>  (881) 
DRTS_PLAFK

>  <affinity>  (881) 
9.15

>  <chembldocid>  (881) 
17662

>  <title>  (881) 
None

>  <reference.pubmed_id>  (881) 
14736247

>  <reference.doi>  (881) 
None

>  <reference.chembl_id>  (881) 
CHEMBL1138835

>  <reference.journal>  (881) 
J. Med. Chem.

>  <reference.year>  (881) 
2004

$$$$

     RDKit          3D

 29 32  0  0  0  0  0  0  0  0999 V2000
    2.2180    5.3482   -0.1907 N   0  0  0  0  0  0  0  0  0  0  0  0
    2.2654    3.9025   -0.1228 C   0  0  0  0  0  0  0  0  0  0  0  0
    1.8225    3.2973    0.8270 N   0  0  0  0  0  0  0  0  0  0  0  0
    1.7626    1.8024    1.1139 C   0  0  1  0  0  0  0  0  0  0  0  0
    0.2410    1.5383    0.6198 C   0  0  0  0  0  0  0  0  0  0  0  0
   -0.2165    2.0437   -0.5102 C   0  0  0  0  0  0  0  0  0  0  0  0
   -1.5220    1.7802   -0.8721 C   0  0  0  0  0  0  0  0  0  0  0  0
   -2.3047    1.0040   -0.0516 C   0  0  0  0  0  0  0  0  0  0  0  0
   -1.8409    0.4796    1.1141 C   0  0  0  0  0  0  0  0  0  0  0  0
   -2.5381   -0.3001    1.9933 O   0  0  0  0  0  0  0  0  0  0  0  0
   -3.8615   -0.7186    1.8793 C   0  0  0  0  0  0  0  0  0  0  0  0
   -4.0402   -1.5223    0.6469 C   0  0  0  0  0  0  0  0  0  0  0  0
   -4.4426   -0.8757   -0.4978 C   0  0  0  0  0  0  0  0  0  0  0  0
   -4.6045   -1.6378   -1.6370 C   0  0  0  0  0  0  0  0  0  0  0  0
   -4.3742   -2.9912   -1.6348 C   0  0  0  0  0  0  0  0  0  0  0  0
   -3.9679   -3.6533   -0.4853 C   0  0  0  0  0  0  0  0  0  0  0  0
   -3.8118   -2.8674    0.6470 C   0  0  0  0  0  0  0  0  0  0  0  0
   -0.5157    0.7652    1.4511 C   0  0  0  0  0  0  0  0  0  0  0  0
    2.4365    1.1371   -0.1528 N   0  0  0  0  0  0  0  0  0  0  0  0
    2.4742   -0.2857   -0.0679 C   0  0  0  0  0  0  0  0  0  0  0  0
    3.5554   -0.8911    0.5061 C   0  0  0  0  0  0  0  0  0  0  0  0
    3.6408   -2.2736    0.6132 C   0  0  0  0  0  0  0  0  0  0  0  0
    2.6185   -3.0497    0.1330 C   0  0  0  0  0  0  0  0  0  0  0  0
    2.7685   -4.7845    0.2891 Cl  0  0  0  0  0  0  0  0  0  0  0  0
    1.5313   -2.4512   -0.4437 C   0  0  0  0  0  0  0  0  0  0  0  0
    1.4639   -1.0651   -0.5419 C   0  0  0  0  0  0  0  0  0  0  0  0
    2.9108    1.8885   -1.1812 C   0  0  0  0  0  0  0  0  0  0  0  0
    3.5076    1.2436   -2.2967 N   0  0  0  0  0  0  0  0  0  0  0  0
    2.8235    3.1364   -1.1475 N   0  0  0  0  0  0  0  0  0  0  0  0
  1  2  1  0
  2  3  2  0
  3  4  1  0
  4  5  1  6
  5  6  2  0
  6  7  1  0
  7  8  2  0
  8  9  1  0
  9 10  1  0
 10 11  1  0
 11 12  1  0
 12 13  2  0
 13 14  1  0
 14 15  2  0
 15 16  1  0
 16 17  2  0
  9 18  2  0
  4 19  1  0
 19 20  1  0
 20 21  2  0
 21 22  1  0
 22 23  2  0
 23 24  1  0
 23 25  1  0
 25 26  2  0
 19 27  1  0
 27 28  1  0
 27 29  2  0
 29  2  1  0
 18  5  1  0
 26 20  1  0
 17 12  1  0
M  END
>  <zinc_id>  (882) 
ZINC000013559316

>  <ortholog_name>  (882) 
DRTS_PLAFK

>  <gene_name>  (882) 
DRTS_PLAFK

>  <affinity>  (882) 
6.66

>  <chembldocid>  (882) 
17662

>  <title>  (882) 
None

>  <reference.pubmed_id>  (882) 
14736247

>  <reference.doi>  (882) 
None

>  <reference.chembl_id>  (882) 
CHEMBL1138835

>  <reference.journal>  (882) 
J. Med. Chem.

>  <reference.year>  (882) 
2004

$$$$

     RDKit          3D

 29 32  0  0  0  0  0  0  0  0999 V2000
    2.2180    5.3482   -0.1907 N   0  0  0  0  0  0  0  0  0  0  0  0
    2.2654    3.9025   -0.1228 C   0  0  0  0  0  0  0  0  0  0  0  0
    1.8225    3.2973    0.8270 N   0  0  0  0  0  0  0  0  0  0  0  0
    1.7626    1.8024    1.1139 C   0  0  1  0  0  0  0  0  0  0  0  0
    0.2410    1.5383    0.6198 C   0  0  0  0  0  0  0  0  0  0  0  0
   -0.2165    2.0437   -0.5102 C   0  0  0  0  0  0  0  0  0  0  0  0
   -1.5220    1.7802   -0.8721 C   0  0  0  0  0  0  0  0  0  0  0  0
   -2.3047    1.0040   -0.0516 C   0  0  0  0  0  0  0  0  0  0  0  0
   -1.8409    0.4796    1.1141 C   0  0  0  0  0  0  0  0  0  0  0  0
   -2.5381   -0.3001    1.9933 O   0  0  0  0  0  0  0  0  0  0  0  0
   -3.8615   -0.7186    1.8793 C   0  0  0  0  0  0  0  0  0  0  0  0
   -4.0402   -1.5223    0.6469 C   0  0  0  0  0  0  0  0  0  0  0  0
   -4.4426   -0.8757   -0.4978 C   0  0  0  0  0  0  0  0  0  0  0  0
   -4.6045   -1.6378   -1.6370 C   0  0  0  0  0  0  0  0  0  0  0  0
   -4.3742   -2.9912   -1.6348 C   0  0  0  0  0  0  0  0  0  0  0  0
   -3.9679   -3.6533   -0.4853 C   0  0  0  0  0  0  0  0  0  0  0  0
   -3.8118   -2.8674    0.6470 C   0  0  0  0  0  0  0  0  0  0  0  0
   -0.5157    0.7652    1.4511 C   0  0  0  0  0  0  0  0  0  0  0  0
    2.4365    1.1371   -0.1528 N   0  0  0  0  0  0  0  0  0  0  0  0
    2.4742   -0.2857   -0.0679 C   0  0  0  0  0  0  0  0  0  0  0  0
    3.5554   -0.8911    0.5061 C   0  0  0  0  0  0  0  0  0  0  0  0
    3.6408   -2.2736    0.6132 C   0  0  0  0  0  0  0  0  0  0  0  0
    2.6185   -3.0497    0.1330 C   0  0  0  0  0  0  0  0  0  0  0  0
    2.7685   -4.7845    0.2891 Cl  0  0  0  0  0  0  0  0  0  0  0  0
    1.5313   -2.4512   -0.4437 C   0  0  0  0  0  0  0  0  0  0  0  0
    1.4639   -1.0651   -0.5419 C   0  0  0  0  0  0  0  0  0  0  0  0
    2.9108    1.8885   -1.1812 C   0  0  0  0  0  0  0  0  0  0  0  0
    3.5076    1.2436   -2.2967 N   0  0  0  0  0  0  0  0  0  0  0  0
    2.8235    3.1364   -1.1475 N   0  0  0  0  0  0  0  0  0  0  0  0
  1  2  1  0
  2  3  2  0
  3  4  1  0
  4  5  1  6
  5  6  2  0
  6  7  1  0
  7  8  2  0
  8  9  1  0
  9 10  1  0
 10 11  1  0
 11 12  1  0
 12 13  2  0
 13 14  1  0
 14 15  2  0
 15 16  1  0
 16 17  2  0
  9 18  2  0
  4 19  1  0
 19 20  1  0
 20 21  2  0
 21 22  1  0
 22 23  2  0
 23 24  1  0
 23 25  1  0
 25 26  2  0
 19 27  1  0
 27 28  1  0
 27 29  2  0
 29  2  1  0
 18  5  1  0
 26 20  1  0
 17 12  1  0
M  END
>  <zinc_id>  (883) 
ZINC000013559316

>  <ortholog_name>  (883) 
DRTS_PLAFK

>  <gene_name>  (883) 
DRTS_PLAFK

>  <affinity>  (883) 
8.21

>  <chembldocid>  (883) 
17662

>  <title>  (883) 
None

>  <reference.pubmed_id>  (883) 
14736247

>  <reference.doi>  (883) 
None

>  <reference.chembl_id>  (883) 
CHEMBL1138835

>  <reference.journal>  (883) 
J. Med. Chem.

>  <reference.year>  (883) 
2004

$$$$

     RDKit          3D

 29 32  0  0  0  0  0  0  0  0999 V2000
    2.2180    5.3482   -0.1907 N   0  0  0  0  0  0  0  0  0  0  0  0
    2.2654    3.9025   -0.1228 C   0  0  0  0  0  0  0  0  0  0  0  0
    1.8225    3.2973    0.8270 N   0  0  0  0  0  0  0  0  0  0  0  0
    1.7626    1.8024    1.1139 C   0  0  1  0  0  0  0  0  0  0  0  0
    0.2410    1.5383    0.6198 C   0  0  0  0  0  0  0  0  0  0  0  0
   -0.2165    2.0437   -0.5102 C   0  0  0  0  0  0  0  0  0  0  0  0
   -1.5220    1.7802   -0.8721 C   0  0  0  0  0  0  0  0  0  0  0  0
   -2.3047    1.0040   -0.0516 C   0  0  0  0  0  0  0  0  0  0  0  0
   -1.8409    0.4796    1.1141 C   0  0  0  0  0  0  0  0  0  0  0  0
   -2.5381   -0.3001    1.9933 O   0  0  0  0  0  0  0  0  0  0  0  0
   -3.8615   -0.7186    1.8793 C   0  0  0  0  0  0  0  0  0  0  0  0
   -4.0402   -1.5223    0.6469 C   0  0  0  0  0  0  0  0  0  0  0  0
   -4.4426   -0.8757   -0.4978 C   0  0  0  0  0  0  0  0  0  0  0  0
   -4.6045   -1.6378   -1.6370 C   0  0  0  0  0  0  0  0  0  0  0  0
   -4.3742   -2.9912   -1.6348 C   0  0  0  0  0  0  0  0  0  0  0  0
   -3.9679   -3.6533   -0.4853 C   0  0  0  0  0  0  0  0  0  0  0  0
   -3.8118   -2.8674    0.6470 C   0  0  0  0  0  0  0  0  0  0  0  0
   -0.5157    0.7652    1.4511 C   0  0  0  0  0  0  0  0  0  0  0  0
    2.4365    1.1371   -0.1528 N   0  0  0  0  0  0  0  0  0  0  0  0
    2.4742   -0.2857   -0.0679 C   0  0  0  0  0  0  0  0  0  0  0  0
    3.5554   -0.8911    0.5061 C   0  0  0  0  0  0  0  0  0  0  0  0
    3.6408   -2.2736    0.6132 C   0  0  0  0  0  0  0  0  0  0  0  0
    2.6185   -3.0497    0.1330 C   0  0  0  0  0  0  0  0  0  0  0  0
    2.7685   -4.7845    0.2891 Cl  0  0  0  0  0  0  0  0  0  0  0  0
    1.5313   -2.4512   -0.4437 C   0  0  0  0  0  0  0  0  0  0  0  0
    1.4639   -1.0651   -0.5419 C   0  0  0  0  0  0  0  0  0  0  0  0
    2.9108    1.8885   -1.1812 C   0  0  0  0  0  0  0  0  0  0  0  0
    3.5076    1.2436   -2.2967 N   0  0  0  0  0  0  0  0  0  0  0  0
    2.8235    3.1364   -1.1475 N   0  0  0  0  0  0  0  0  0  0  0  0
  1  2  1  0
  2  3  2  0
  3  4  1  0
  4  5  1  6
  5  6  2  0
  6  7  1  0
  7  8  2  0
  8  9  1  0
  9 10  1  0
 10 11  1  0
 11 12  1  0
 12 13  2  0
 13 14  1  0
 14 15  2  0
 15 16  1  0
 16 17  2  0
  9 18  2  0
  4 19  1  0
 19 20  1  0
 20 21  2  0
 21 22  1  0
 22 23  2  0
 23 24  1  0
 23 25  1  0
 25 26  2  0
 19 27  1  0
 27 28  1  0
 27 29  2  0
 29  2  1  0
 18  5  1  0
 26 20  1  0
 17 12  1  0
M  END
>  <zinc_id>  (884) 
ZINC000013559316

>  <ortholog_name>  (884) 
DRTS_PLAFK

>  <gene_name>  (884) 
DRTS_PLAFK

>  <affinity>  (884) 
6.20

>  <chembldocid>  (884) 
17662

>  <title>  (884) 
None

>  <reference.pubmed_id>  (884) 
14736247

>  <reference.doi>  (884) 
None

>  <reference.chembl_id>  (884) 
CHEMBL1138835

>  <reference.journal>  (884) 
J. Med. Chem.

>  <reference.year>  (884) 
2004

$$$$

     RDKit          3D

 29 32  0  0  0  0  0  0  0  0999 V2000
    2.2180    5.3482   -0.1907 N   0  0  0  0  0  0  0  0  0  0  0  0
    2.2654    3.9025   -0.1228 C   0  0  0  0  0  0  0  0  0  0  0  0
    1.8225    3.2973    0.8270 N   0  0  0  0  0  0  0  0  0  0  0  0
    1.7626    1.8024    1.1139 C   0  0  1  0  0  0  0  0  0  0  0  0
    0.2410    1.5383    0.6198 C   0  0  0  0  0  0  0  0  0  0  0  0
   -0.2165    2.0437   -0.5102 C   0  0  0  0  0  0  0  0  0  0  0  0
   -1.5220    1.7802   -0.8721 C   0  0  0  0  0  0  0  0  0  0  0  0
   -2.3047    1.0040   -0.0516 C   0  0  0  0  0  0  0  0  0  0  0  0
   -1.8409    0.4796    1.1141 C   0  0  0  0  0  0  0  0  0  0  0  0
   -2.5381   -0.3001    1.9933 O   0  0  0  0  0  0  0  0  0  0  0  0
   -3.8615   -0.7186    1.8793 C   0  0  0  0  0  0  0  0  0  0  0  0
   -4.0402   -1.5223    0.6469 C   0  0  0  0  0  0  0  0  0  0  0  0
   -4.4426   -0.8757   -0.4978 C   0  0  0  0  0  0  0  0  0  0  0  0
   -4.6045   -1.6378   -1.6370 C   0  0  0  0  0  0  0  0  0  0  0  0
   -4.3742   -2.9912   -1.6348 C   0  0  0  0  0  0  0  0  0  0  0  0
   -3.9679   -3.6533   -0.4853 C   0  0  0  0  0  0  0  0  0  0  0  0
   -3.8118   -2.8674    0.6470 C   0  0  0  0  0  0  0  0  0  0  0  0
   -0.5157    0.7652    1.4511 C   0  0  0  0  0  0  0  0  0  0  0  0
    2.4365    1.1371   -0.1528 N   0  0  0  0  0  0  0  0  0  0  0  0
    2.4742   -0.2857   -0.0679 C   0  0  0  0  0  0  0  0  0  0  0  0
    3.5554   -0.8911    0.5061 C   0  0  0  0  0  0  0  0  0  0  0  0
    3.6408   -2.2736    0.6132 C   0  0  0  0  0  0  0  0  0  0  0  0
    2.6185   -3.0497    0.1330 C   0  0  0  0  0  0  0  0  0  0  0  0
    2.7685   -4.7845    0.2891 Cl  0  0  0  0  0  0  0  0  0  0  0  0
    1.5313   -2.4512   -0.4437 C   0  0  0  0  0  0  0  0  0  0  0  0
    1.4639   -1.0651   -0.5419 C   0  0  0  0  0  0  0  0  0  0  0  0
    2.9108    1.8885   -1.1812 C   0  0  0  0  0  0  0  0  0  0  0  0
    3.5076    1.2436   -2.2967 N   0  0  0  0  0  0  0  0  0  0  0  0
    2.8235    3.1364   -1.1475 N   0  0  0  0  0  0  0  0  0  0  0  0
  1  2  1  0
  2  3  2  0
  3  4  1  0
  4  5  1  6
  5  6  2  0
  6  7  1  0
  7  8  2  0
  8  9  1  0
  9 10  1  0
 10 11  1  0
 11 12  1  0
 12 13  2  0
 13 14  1  0
 14 15  2  0
 15 16  1  0
 16 17  2  0
  9 18  2  0
  4 19  1  0
 19 20  1  0
 20 21  2  0
 21 22  1  0
 22 23  2  0
 23 24  1  0
 23 25  1  0
 25 26  2  0
 19 27  1  0
 27 28  1  0
 27 29  2  0
 29  2  1  0
 18  5  1  0
 26 20  1  0
 17 12  1  0
M  END
>  <zinc_id>  (885) 
ZINC000013559316

>  <ortholog_name>  (885) 
DRTS_PLAFK

>  <gene_name>  (885) 
DRTS_PLAFK

>  <affinity>  (885) 
6.11

>  <chembldocid>  (885) 
17662

>  <title>  (885) 
None

>  <reference.pubmed_id>  (885) 
14736247

>  <reference.doi>  (885) 
None

>  <reference.chembl_id>  (885) 
CHEMBL1138835

>  <reference.journal>  (885) 
J. Med. Chem.

>  <reference.year>  (885) 
2004

$$$$

     RDKit          3D

 29 32  0  0  0  0  0  0  0  0999 V2000
   -1.6390   -4.5923   -0.7656 N   0  0  0  0  0  0  0  0  0  0  0  0
   -1.8986   -3.2014   -0.5066 C   0  0  0  0  0  0  0  0  0  0  0  0
   -1.4783   -2.3798   -1.2858 N   0  0  0  0  0  0  0  0  0  0  0  0
   -1.6738   -0.8170   -1.1343 C   0  0  2  0  0  0  0  0  0  0  0  0
   -0.2784   -0.5607   -0.3389 C   0  0  0  0  0  0  0  0  0  0  0  0
   -0.2281    0.1640    0.7555 C   0  0  0  0  0  0  0  0  0  0  0  0
    0.9690    0.3651    1.3988 C   0  0  0  0  0  0  0  0  0  0  0  0
    2.1001   -0.2064    0.8718 C   0  0  0  0  0  0  0  0  0  0  0  0
    2.0628   -0.9658   -0.2705 C   0  0  0  0  0  0  0  0  0  0  0  0
    3.1589   -1.5729   -0.8607 O   0  0  0  0  0  0  0  0  0  0  0  0
    4.4606   -1.4894   -0.3626 C   0  0  0  0  0  0  0  0  0  0  0  0
    4.9780   -0.1050   -0.2855 C   0  0  0  0  0  0  0  0  0  0  0  0
    4.2506    1.0004   -0.6672 C   0  0  0  0  0  0  0  0  0  0  0  0
    4.8161    2.2538   -0.5598 C   0  0  0  0  0  0  0  0  0  0  0  0
    6.1111    2.4418   -0.0733 C   0  0  0  0  0  0  0  0  0  0  0  0
    6.8126    1.3326    0.2988 C   0  0  0  0  0  0  0  0  0  0  0  0
    6.2575    0.0670    0.1964 C   0  0  0  0  0  0  0  0  0  0  0  0
    0.8310   -1.1464   -0.8932 C   0  0  0  0  0  0  0  0  0  0  0  0
   -2.6450   -0.7165    0.0667 N   0  0  0  0  0  0  0  0  0  0  0  0
   -3.1413    0.6041    0.1957 C   0  0  0  0  0  0  0  0  0  0  0  0
   -2.6335    1.5877    0.9859 C   0  0  0  0  0  0  0  0  0  0  0  0
   -3.1852    2.8465    1.0466 C   0  0  0  0  0  0  0  0  0  0  0  0
   -4.3057    3.1838    0.2933 C   0  0  0  0  0  0  0  0  0  0  0  0
   -5.0385    4.7598    0.3360 Cl  0  0  0  0  0  0  0  0  0  0  0  0
   -4.8349    2.2156   -0.5078 C   0  0  0  0  0  0  0  0  0  0  0  0
   -4.2748    0.9719   -0.5558 C   0  0  0  0  0  0  0  0  0  0  0  0
   -3.0430   -1.7069    0.8823 C   0  0  0  0  0  0  0  0  0  0  0  0
   -3.8388   -1.4550    2.0302 N   0  0  0  0  0  0  0  0  0  0  0  0
   -2.6717   -2.8786    0.5757 N   0  0  0  0  0  0  0  0  0  0  0  0
  1  2  1  0
  2  3  2  0
  3  4  1  0
  4  5  1  1
  5  6  2  0
  6  7  1  0
  7  8  2  0
  8  9  1  0
  9 10  1  0
 10 11  1  0
 11 12  1  0
 12 13  2  0
 13 14  1  0
 14 15  2  0
 15 16  1  0
 16 17  2  0
  9 18  2  0
  4 19  1  0
 19 20  1  0
 20 21  2  0
 21 22  1  0
 22 23  2  0
 23 24  1  0
 23 25  1  0
 25 26  2  0
 19 27  1  0
 27 28  1  0
 27 29  2  0
 29  2  1  0
 18  5  1  0
 26 20  1  0
 17 12  1  0
M  END
>  <zinc_id>  (886) 
ZINC000013559317

>  <ortholog_name>  (886) 
DRTS_PLAFK

>  <gene_name>  (886) 
DRTS_PLAFK

>  <affinity>  (886) 
9.15

>  <chembldocid>  (886) 
17662

>  <title>  (886) 
None

>  <reference.pubmed_id>  (886) 
14736247

>  <reference.doi>  (886) 
None

>  <reference.chembl_id>  (886) 
CHEMBL1138835

>  <reference.journal>  (886) 
J. Med. Chem.

>  <reference.year>  (886) 
2004

$$$$

     RDKit          3D

 29 32  0  0  0  0  0  0  0  0999 V2000
   -1.6390   -4.5923   -0.7656 N   0  0  0  0  0  0  0  0  0  0  0  0
   -1.8986   -3.2014   -0.5066 C   0  0  0  0  0  0  0  0  0  0  0  0
   -1.4783   -2.3798   -1.2858 N   0  0  0  0  0  0  0  0  0  0  0  0
   -1.6738   -0.8170   -1.1343 C   0  0  2  0  0  0  0  0  0  0  0  0
   -0.2784   -0.5607   -0.3389 C   0  0  0  0  0  0  0  0  0  0  0  0
   -0.2281    0.1640    0.7555 C   0  0  0  0  0  0  0  0  0  0  0  0
    0.9690    0.3651    1.3988 C   0  0  0  0  0  0  0  0  0  0  0  0
    2.1001   -0.2064    0.8718 C   0  0  0  0  0  0  0  0  0  0  0  0
    2.0628   -0.9658   -0.2705 C   0  0  0  0  0  0  0  0  0  0  0  0
    3.1589   -1.5729   -0.8607 O   0  0  0  0  0  0  0  0  0  0  0  0
    4.4606   -1.4894   -0.3626 C   0  0  0  0  0  0  0  0  0  0  0  0
    4.9780   -0.1050   -0.2855 C   0  0  0  0  0  0  0  0  0  0  0  0
    4.2506    1.0004   -0.6672 C   0  0  0  0  0  0  0  0  0  0  0  0
    4.8161    2.2538   -0.5598 C   0  0  0  0  0  0  0  0  0  0  0  0
    6.1111    2.4418   -0.0733 C   0  0  0  0  0  0  0  0  0  0  0  0
    6.8126    1.3326    0.2988 C   0  0  0  0  0  0  0  0  0  0  0  0
    6.2575    0.0670    0.1964 C   0  0  0  0  0  0  0  0  0  0  0  0
    0.8310   -1.1464   -0.8932 C   0  0  0  0  0  0  0  0  0  0  0  0
   -2.6450   -0.7165    0.0667 N   0  0  0  0  0  0  0  0  0  0  0  0
   -3.1413    0.6041    0.1957 C   0  0  0  0  0  0  0  0  0  0  0  0
   -2.6335    1.5877    0.9859 C   0  0  0  0  0  0  0  0  0  0  0  0
   -3.1852    2.8465    1.0466 C   0  0  0  0  0  0  0  0  0  0  0  0
   -4.3057    3.1838    0.2933 C   0  0  0  0  0  0  0  0  0  0  0  0
   -5.0385    4.7598    0.3360 Cl  0  0  0  0  0  0  0  0  0  0  0  0
   -4.8349    2.2156   -0.5078 C   0  0  0  0  0  0  0  0  0  0  0  0
   -4.2748    0.9719   -0.5558 C   0  0  0  0  0  0  0  0  0  0  0  0
   -3.0430   -1.7069    0.8823 C   0  0  0  0  0  0  0  0  0  0  0  0
   -3.8388   -1.4550    2.0302 N   0  0  0  0  0  0  0  0  0  0  0  0
   -2.6717   -2.8786    0.5757 N   0  0  0  0  0  0  0  0  0  0  0  0
  1  2  1  0
  2  3  2  0
  3  4  1  0
  4  5  1  1
  5  6  2  0
  6  7  1  0
  7  8  2  0
  8  9  1  0
  9 10  1  0
 10 11  1  0
 11 12  1  0
 12 13  2  0
 13 14  1  0
 14 15  2  0
 15 16  1  0
 16 17  2  0
  9 18  2  0
  4 19  1  0
 19 20  1  0
 20 21  2  0
 21 22  1  0
 22 23  2  0
 23 24  1  0
 23 25  1  0
 25 26  2  0
 19 27  1  0
 27 28  1  0
 27 29  2  0
 29  2  1  0
 18  5  1  0
 26 20  1  0
 17 12  1  0
M  END
>  <zinc_id>  (887) 
ZINC000013559317

>  <ortholog_name>  (887) 
DRTS_PLAFK

>  <gene_name>  (887) 
DRTS_PLAFK

>  <affinity>  (887) 
6.66

>  <chembldocid>  (887) 
17662

>  <title>  (887) 
None

>  <reference.pubmed_id>  (887) 
14736247

>  <reference.doi>  (887) 
None

>  <reference.chembl_id>  (887) 
CHEMBL1138835

>  <reference.journal>  (887) 
J. Med. Chem.

>  <reference.year>  (887) 
2004

$$$$

     RDKit          3D

 29 32  0  0  0  0  0  0  0  0999 V2000
   -1.6390   -4.5923   -0.7656 N   0  0  0  0  0  0  0  0  0  0  0  0
   -1.8986   -3.2014   -0.5066 C   0  0  0  0  0  0  0  0  0  0  0  0
   -1.4783   -2.3798   -1.2858 N   0  0  0  0  0  0  0  0  0  0  0  0
   -1.6738   -0.8170   -1.1343 C   0  0  2  0  0  0  0  0  0  0  0  0
   -0.2784   -0.5607   -0.3389 C   0  0  0  0  0  0  0  0  0  0  0  0
   -0.2281    0.1640    0.7555 C   0  0  0  0  0  0  0  0  0  0  0  0
    0.9690    0.3651    1.3988 C   0  0  0  0  0  0  0  0  0  0  0  0
    2.1001   -0.2064    0.8718 C   0  0  0  0  0  0  0  0  0  0  0  0
    2.0628   -0.9658   -0.2705 C   0  0  0  0  0  0  0  0  0  0  0  0
    3.1589   -1.5729   -0.8607 O   0  0  0  0  0  0  0  0  0  0  0  0
    4.4606   -1.4894   -0.3626 C   0  0  0  0  0  0  0  0  0  0  0  0
    4.9780   -0.1050   -0.2855 C   0  0  0  0  0  0  0  0  0  0  0  0
    4.2506    1.0004   -0.6672 C   0  0  0  0  0  0  0  0  0  0  0  0
    4.8161    2.2538   -0.5598 C   0  0  0  0  0  0  0  0  0  0  0  0
    6.1111    2.4418   -0.0733 C   0  0  0  0  0  0  0  0  0  0  0  0
    6.8126    1.3326    0.2988 C   0  0  0  0  0  0  0  0  0  0  0  0
    6.2575    0.0670    0.1964 C   0  0  0  0  0  0  0  0  0  0  0  0
    0.8310   -1.1464   -0.8932 C   0  0  0  0  0  0  0  0  0  0  0  0
   -2.6450   -0.7165    0.0667 N   0  0  0  0  0  0  0  0  0  0  0  0
   -3.1413    0.6041    0.1957 C   0  0  0  0  0  0  0  0  0  0  0  0
   -2.6335    1.5877    0.9859 C   0  0  0  0  0  0  0  0  0  0  0  0
   -3.1852    2.8465    1.0466 C   0  0  0  0  0  0  0  0  0  0  0  0
   -4.3057    3.1838    0.2933 C   0  0  0  0  0  0  0  0  0  0  0  0
   -5.0385    4.7598    0.3360 Cl  0  0  0  0  0  0  0  0  0  0  0  0
   -4.8349    2.2156   -0.5078 C   0  0  0  0  0  0  0  0  0  0  0  0
   -4.2748    0.9719   -0.5558 C   0  0  0  0  0  0  0  0  0  0  0  0
   -3.0430   -1.7069    0.8823 C   0  0  0  0  0  0  0  0  0  0  0  0
   -3.8388   -1.4550    2.0302 N   0  0  0  0  0  0  0  0  0  0  0  0
   -2.6717   -2.8786    0.5757 N   0  0  0  0  0  0  0  0  0  0  0  0
  1  2  1  0
  2  3  2  0
  3  4  1  0
  4  5  1  1
  5  6  2  0
  6  7  1  0
  7  8  2  0
  8  9  1  0
  9 10  1  0
 10 11  1  0
 11 12  1  0
 12 13  2  0
 13 14  1  0
 14 15  2  0
 15 16  1  0
 16 17  2  0
  9 18  2  0
  4 19  1  0
 19 20  1  0
 20 21  2  0
 21 22  1  0
 22 23  2  0
 23 24  1  0
 23 25  1  0
 25 26  2  0
 19 27  1  0
 27 28  1  0
 27 29  2  0
 29  2  1  0
 18  5  1  0
 26 20  1  0
 17 12  1  0
M  END
>  <zinc_id>  (888) 
ZINC000013559317

>  <ortholog_name>  (888) 
DRTS_PLAFK

>  <gene_name>  (888) 
DRTS_PLAFK

>  <affinity>  (888) 
8.21

>  <chembldocid>  (888) 
17662

>  <title>  (888) 
None

>  <reference.pubmed_id>  (888) 
14736247

>  <reference.doi>  (888) 
None

>  <reference.chembl_id>  (888) 
CHEMBL1138835

>  <reference.journal>  (888) 
J. Med. Chem.

>  <reference.year>  (888) 
2004

$$$$

     RDKit          3D

 29 32  0  0  0  0  0  0  0  0999 V2000
   -1.6390   -4.5923   -0.7656 N   0  0  0  0  0  0  0  0  0  0  0  0
   -1.8986   -3.2014   -0.5066 C   0  0  0  0  0  0  0  0  0  0  0  0
   -1.4783   -2.3798   -1.2858 N   0  0  0  0  0  0  0  0  0  0  0  0
   -1.6738   -0.8170   -1.1343 C   0  0  2  0  0  0  0  0  0  0  0  0
   -0.2784   -0.5607   -0.3389 C   0  0  0  0  0  0  0  0  0  0  0  0
   -0.2281    0.1640    0.7555 C   0  0  0  0  0  0  0  0  0  0  0  0
    0.9690    0.3651    1.3988 C   0  0  0  0  0  0  0  0  0  0  0  0
    2.1001   -0.2064    0.8718 C   0  0  0  0  0  0  0  0  0  0  0  0
    2.0628   -0.9658   -0.2705 C   0  0  0  0  0  0  0  0  0  0  0  0
    3.1589   -1.5729   -0.8607 O   0  0  0  0  0  0  0  0  0  0  0  0
    4.4606   -1.4894   -0.3626 C   0  0  0  0  0  0  0  0  0  0  0  0
    4.9780   -0.1050   -0.2855 C   0  0  0  0  0  0  0  0  0  0  0  0
    4.2506    1.0004   -0.6672 C   0  0  0  0  0  0  0  0  0  0  0  0
    4.8161    2.2538   -0.5598 C   0  0  0  0  0  0  0  0  0  0  0  0
    6.1111    2.4418   -0.0733 C   0  0  0  0  0  0  0  0  0  0  0  0
    6.8126    1.3326    0.2988 C   0  0  0  0  0  0  0  0  0  0  0  0
    6.2575    0.0670    0.1964 C   0  0  0  0  0  0  0  0  0  0  0  0
    0.8310   -1.1464   -0.8932 C   0  0  0  0  0  0  0  0  0  0  0  0
   -2.6450   -0.7165    0.0667 N   0  0  0  0  0  0  0  0  0  0  0  0
   -3.1413    0.6041    0.1957 C   0  0  0  0  0  0  0  0  0  0  0  0
   -2.6335    1.5877    0.9859 C   0  0  0  0  0  0  0  0  0  0  0  0
   -3.1852    2.8465    1.0466 C   0  0  0  0  0  0  0  0  0  0  0  0
   -4.3057    3.1838    0.2933 C   0  0  0  0  0  0  0  0  0  0  0  0
   -5.0385    4.7598    0.3360 Cl  0  0  0  0  0  0  0  0  0  0  0  0
   -4.8349    2.2156   -0.5078 C   0  0  0  0  0  0  0  0  0  0  0  0
   -4.2748    0.9719   -0.5558 C   0  0  0  0  0  0  0  0  0  0  0  0
   -3.0430   -1.7069    0.8823 C   0  0  0  0  0  0  0  0  0  0  0  0
   -3.8388   -1.4550    2.0302 N   0  0  0  0  0  0  0  0  0  0  0  0
   -2.6717   -2.8786    0.5757 N   0  0  0  0  0  0  0  0  0  0  0  0
  1  2  1  0
  2  3  2  0
  3  4  1  0
  4  5  1  1
  5  6  2  0
  6  7  1  0
  7  8  2  0
  8  9  1  0
  9 10  1  0
 10 11  1  0
 11 12  1  0
 12 13  2  0
 13 14  1  0
 14 15  2  0
 15 16  1  0
 16 17  2  0
  9 18  2  0
  4 19  1  0
 19 20  1  0
 20 21  2  0
 21 22  1  0
 22 23  2  0
 23 24  1  0
 23 25  1  0
 25 26  2  0
 19 27  1  0
 27 28  1  0
 27 29  2  0
 29  2  1  0
 18  5  1  0
 26 20  1  0
 17 12  1  0
M  END
>  <zinc_id>  (889) 
ZINC000013559317

>  <ortholog_name>  (889) 
DRTS_PLAFK

>  <gene_name>  (889) 
DRTS_PLAFK

>  <affinity>  (889) 
6.20

>  <chembldocid>  (889) 
17662

>  <title>  (889) 
None

>  <reference.pubmed_id>  (889) 
14736247

>  <reference.doi>  (889) 
None

>  <reference.chembl_id>  (889) 
CHEMBL1138835

>  <reference.journal>  (889) 
J. Med. Chem.

>  <reference.year>  (889) 
2004

$$$$

     RDKit          3D

 29 32  0  0  0  0  0  0  0  0999 V2000
   -1.6390   -4.5923   -0.7656 N   0  0  0  0  0  0  0  0  0  0  0  0
   -1.8986   -3.2014   -0.5066 C   0  0  0  0  0  0  0  0  0  0  0  0
   -1.4783   -2.3798   -1.2858 N   0  0  0  0  0  0  0  0  0  0  0  0
   -1.6738   -0.8170   -1.1343 C   0  0  2  0  0  0  0  0  0  0  0  0
   -0.2784   -0.5607   -0.3389 C   0  0  0  0  0  0  0  0  0  0  0  0
   -0.2281    0.1640    0.7555 C   0  0  0  0  0  0  0  0  0  0  0  0
    0.9690    0.3651    1.3988 C   0  0  0  0  0  0  0  0  0  0  0  0
    2.1001   -0.2064    0.8718 C   0  0  0  0  0  0  0  0  0  0  0  0
    2.0628   -0.9658   -0.2705 C   0  0  0  0  0  0  0  0  0  0  0  0
    3.1589   -1.5729   -0.8607 O   0  0  0  0  0  0  0  0  0  0  0  0
    4.4606   -1.4894   -0.3626 C   0  0  0  0  0  0  0  0  0  0  0  0
    4.9780   -0.1050   -0.2855 C   0  0  0  0  0  0  0  0  0  0  0  0
    4.2506    1.0004   -0.6672 C   0  0  0  0  0  0  0  0  0  0  0  0
    4.8161    2.2538   -0.5598 C   0  0  0  0  0  0  0  0  0  0  0  0
    6.1111    2.4418   -0.0733 C   0  0  0  0  0  0  0  0  0  0  0  0
    6.8126    1.3326    0.2988 C   0  0  0  0  0  0  0  0  0  0  0  0
    6.2575    0.0670    0.1964 C   0  0  0  0  0  0  0  0  0  0  0  0
    0.8310   -1.1464   -0.8932 C   0  0  0  0  0  0  0  0  0  0  0  0
   -2.6450   -0.7165    0.0667 N   0  0  0  0  0  0  0  0  0  0  0  0
   -3.1413    0.6041    0.1957 C   0  0  0  0  0  0  0  0  0  0  0  0
   -2.6335    1.5877    0.9859 C   0  0  0  0  0  0  0  0  0  0  0  0
   -3.1852    2.8465    1.0466 C   0  0  0  0  0  0  0  0  0  0  0  0
   -4.3057    3.1838    0.2933 C   0  0  0  0  0  0  0  0  0  0  0  0
   -5.0385    4.7598    0.3360 Cl  0  0  0  0  0  0  0  0  0  0  0  0
   -4.8349    2.2156   -0.5078 C   0  0  0  0  0  0  0  0  0  0  0  0
   -4.2748    0.9719   -0.5558 C   0  0  0  0  0  0  0  0  0  0  0  0
   -3.0430   -1.7069    0.8823 C   0  0  0  0  0  0  0  0  0  0  0  0
   -3.8388   -1.4550    2.0302 N   0  0  0  0  0  0  0  0  0  0  0  0
   -2.6717   -2.8786    0.5757 N   0  0  0  0  0  0  0  0  0  0  0  0
  1  2  1  0
  2  3  2  0
  3  4  1  0
  4  5  1  1
  5  6  2  0
  6  7  1  0
  7  8  2  0
  8  9  1  0
  9 10  1  0
 10 11  1  0
 11 12  1  0
 12 13  2  0
 13 14  1  0
 14 15  2  0
 15 16  1  0
 16 17  2  0
  9 18  2  0
  4 19  1  0
 19 20  1  0
 20 21  2  0
 21 22  1  0
 22 23  2  0
 23 24  1  0
 23 25  1  0
 25 26  2  0
 19 27  1  0
 27 28  1  0
 27 29  2  0
 29  2  1  0
 18  5  1  0
 26 20  1  0
 17 12  1  0
M  END
>  <zinc_id>  (890) 
ZINC000013559317

>  <ortholog_name>  (890) 
DRTS_PLAFK

>  <gene_name>  (890) 
DRTS_PLAFK

>  <affinity>  (890) 
6.11

>  <chembldocid>  (890) 
17662

>  <title>  (890) 
None

>  <reference.pubmed_id>  (890) 
14736247

>  <reference.doi>  (890) 
None

>  <reference.chembl_id>  (890) 
CHEMBL1138835

>  <reference.journal>  (890) 
J. Med. Chem.

>  <reference.year>  (890) 
2004

$$$$

     RDKit          3D

 29 32  0  0  0  0  0  0  0  0999 V2000
   -3.3642   -5.0732   -0.1972 N   0  0  0  0  0  0  0  0  0  0  0  0
   -3.0333   -3.6669    0.1201 C   0  0  0  0  0  0  0  0  0  0  0  0
   -1.8569   -3.3379    0.2640 N   0  0  0  0  0  0  0  0  0  0  0  0
   -1.3858   -1.9957    0.5766 C   0  0  1  0  0  0  0  0  0  0  0  0
   -0.6560   -1.4726   -0.7325 C   0  0  0  0  0  0  0  0  0  0  0  0
   -1.0870   -1.5724   -1.9666 C   0  0  0  0  0  0  0  0  0  0  0  0
   -0.3537   -1.0718   -3.0416 C   0  0  0  0  0  0  0  0  0  0  0  0
    0.8413   -0.4675   -2.7630 C   0  0  0  0  0  0  0  0  0  0  0  0
    1.3431   -0.3337   -1.4942 C   0  0  0  0  0  0  0  0  0  0  0  0
    2.5520    0.2858   -1.2913 O   0  0  0  0  0  0  0  0  0  0  0  0
    3.1977    0.5025   -0.0869 C   0  0  0  0  0  0  0  0  0  0  0  0
    4.4711    1.1966   -0.2717 C   0  0  0  0  0  0  0  0  0  0  0  0
    4.4784    2.5736   -0.2438 C   0  0  0  0  0  0  0  0  0  0  0  0
    5.6568    3.2639   -0.4138 C   0  0  0  0  0  0  0  0  0  0  0  0
    6.8410    2.5590   -0.6142 C   0  0  0  0  0  0  0  0  0  0  0  0
    6.8439    1.1792   -0.6438 C   0  0  0  0  0  0  0  0  0  0  0  0
    5.6696    0.5181   -0.4738 C   0  0  0  0  0  0  0  0  0  0  0  0
    0.5386   -0.8676   -0.4631 C   0  0  0  0  0  0  0  0  0  0  0  0
   -2.5672   -1.0727    0.6962 N   0  0  0  0  0  0  0  0  0  0  0  0
   -2.3924    0.3006    0.9966 C   0  0  0  0  0  0  0  0  0  0  0  0
   -2.3934    0.6382    2.3273 C   0  0  0  0  0  0  0  0  0  0  0  0
   -2.2306    1.9560    2.7571 C   0  0  0  0  0  0  0  0  0  0  0  0
   -2.0604    2.9838    1.8548 C   0  0  0  0  0  0  0  0  0  0  0  0
   -2.0584    2.6514    0.5166 C   0  0  0  0  0  0  0  0  0  0  0  0
   -1.8422    3.9538   -0.6411 Cl  0  0  0  0  0  0  0  0  0  0  0  0
   -2.2222    1.3352    0.1236 C   0  0  0  0  0  0  0  0  0  0  0  0
   -3.8465   -1.5794    0.5083 C   0  0  0  0  0  0  0  0  0  0  0  0
   -4.9153   -0.5849    0.6500 N   0  0  0  0  0  0  0  0  0  0  0  0
   -4.1678   -2.8014    0.2305 N   0  0  0  0  0  0  0  0  0  0  0  0
  1  2  1  0
  2  3  2  0
  3  4  1  0
  4  5  1  6
  5  6  2  0
  6  7  1  0
  7  8  2  0
  8  9  1  0
  9 10  1  0
 10 11  1  0
 11 12  1  0
 12 13  2  0
 13 14  1  0
 14 15  2  0
 15 16  1  0
 16 17  2  0
  9 18  2  0
  4 19  1  0
 19 20  1  0
 20 21  2  0
 21 22  1  0
 22 23  2  0
 23 24  1  0
 24 25  1  0
 24 26  2  0
 19 27  1  0
 27 28  1  0
 27 29  2  0
 29  2  1  0
 18  5  1  0
 26 20  1  0
 17 12  1  0
M  END
>  <zinc_id>  (891) 
ZINC000013559318

>  <ortholog_name>  (891) 
DRTS_PLAFK

>  <gene_name>  (891) 
DRTS_PLAFK

>  <affinity>  (891) 
6.72

>  <chembldocid>  (891) 
17662

>  <title>  (891) 
None

>  <reference.pubmed_id>  (891) 
14736247

>  <reference.doi>  (891) 
None

>  <reference.chembl_id>  (891) 
CHEMBL1138835

>  <reference.journal>  (891) 
J. Med. Chem.

>  <reference.year>  (891) 
2004

$$$$

     RDKit          3D

 29 32  0  0  0  0  0  0  0  0999 V2000
   -3.3642   -5.0732   -0.1972 N   0  0  0  0  0  0  0  0  0  0  0  0
   -3.0333   -3.6669    0.1201 C   0  0  0  0  0  0  0  0  0  0  0  0
   -1.8569   -3.3379    0.2640 N   0  0  0  0  0  0  0  0  0  0  0  0
   -1.3858   -1.9957    0.5766 C   0  0  1  0  0  0  0  0  0  0  0  0
   -0.6560   -1.4726   -0.7325 C   0  0  0  0  0  0  0  0  0  0  0  0
   -1.0870   -1.5724   -1.9666 C   0  0  0  0  0  0  0  0  0  0  0  0
   -0.3537   -1.0718   -3.0416 C   0  0  0  0  0  0  0  0  0  0  0  0
    0.8413   -0.4675   -2.7630 C   0  0  0  0  0  0  0  0  0  0  0  0
    1.3431   -0.3337   -1.4942 C   0  0  0  0  0  0  0  0  0  0  0  0
    2.5520    0.2858   -1.2913 O   0  0  0  0  0  0  0  0  0  0  0  0
    3.1977    0.5025   -0.0869 C   0  0  0  0  0  0  0  0  0  0  0  0
    4.4711    1.1966   -0.2717 C   0  0  0  0  0  0  0  0  0  0  0  0
    4.4784    2.5736   -0.2438 C   0  0  0  0  0  0  0  0  0  0  0  0
    5.6568    3.2639   -0.4138 C   0  0  0  0  0  0  0  0  0  0  0  0
    6.8410    2.5590   -0.6142 C   0  0  0  0  0  0  0  0  0  0  0  0
    6.8439    1.1792   -0.6438 C   0  0  0  0  0  0  0  0  0  0  0  0
    5.6696    0.5181   -0.4738 C   0  0  0  0  0  0  0  0  0  0  0  0
    0.5386   -0.8676   -0.4631 C   0  0  0  0  0  0  0  0  0  0  0  0
   -2.5672   -1.0727    0.6962 N   0  0  0  0  0  0  0  0  0  0  0  0
   -2.3924    0.3006    0.9966 C   0  0  0  0  0  0  0  0  0  0  0  0
   -2.3934    0.6382    2.3273 C   0  0  0  0  0  0  0  0  0  0  0  0
   -2.2306    1.9560    2.7571 C   0  0  0  0  0  0  0  0  0  0  0  0
   -2.0604    2.9838    1.8548 C   0  0  0  0  0  0  0  0  0  0  0  0
   -2.0584    2.6514    0.5166 C   0  0  0  0  0  0  0  0  0  0  0  0
   -1.8422    3.9538   -0.6411 Cl  0  0  0  0  0  0  0  0  0  0  0  0
   -2.2222    1.3352    0.1236 C   0  0  0  0  0  0  0  0  0  0  0  0
   -3.8465   -1.5794    0.5083 C   0  0  0  0  0  0  0  0  0  0  0  0
   -4.9153   -0.5849    0.6500 N   0  0  0  0  0  0  0  0  0  0  0  0
   -4.1678   -2.8014    0.2305 N   0  0  0  0  0  0  0  0  0  0  0  0
  1  2  1  0
  2  3  2  0
  3  4  1  0
  4  5  1  6
  5  6  2  0
  6  7  1  0
  7  8  2  0
  8  9  1  0
  9 10  1  0
 10 11  1  0
 11 12  1  0
 12 13  2  0
 13 14  1  0
 14 15  2  0
 15 16  1  0
 16 17  2  0
  9 18  2  0
  4 19  1  0
 19 20  1  0
 20 21  2  0
 21 22  1  0
 22 23  2  0
 23 24  1  0
 24 25  1  0
 24 26  2  0
 19 27  1  0
 27 28  1  0
 27 29  2  0
 29  2  1  0
 18  5  1  0
 26 20  1  0
 17 12  1  0
M  END
>  <zinc_id>  (892) 
ZINC000013559318

>  <ortholog_name>  (892) 
DRTS_PLAFK

>  <gene_name>  (892) 
DRTS_PLAFK

>  <affinity>  (892) 
8.64

>  <chembldocid>  (892) 
17662

>  <title>  (892) 
None

>  <reference.pubmed_id>  (892) 
14736247

>  <reference.doi>  (892) 
None

>  <reference.chembl_id>  (892) 
CHEMBL1138835

>  <reference.journal>  (892) 
J. Med. Chem.

>  <reference.year>  (892) 
2004

$$$$

     RDKit          3D

 29 32  0  0  0  0  0  0  0  0999 V2000
   -3.3642   -5.0732   -0.1972 N   0  0  0  0  0  0  0  0  0  0  0  0
   -3.0333   -3.6669    0.1201 C   0  0  0  0  0  0  0  0  0  0  0  0
   -1.8569   -3.3379    0.2640 N   0  0  0  0  0  0  0  0  0  0  0  0
   -1.3858   -1.9957    0.5766 C   0  0  1  0  0  0  0  0  0  0  0  0
   -0.6560   -1.4726   -0.7325 C   0  0  0  0  0  0  0  0  0  0  0  0
   -1.0870   -1.5724   -1.9666 C   0  0  0  0  0  0  0  0  0  0  0  0
   -0.3537   -1.0718   -3.0416 C   0  0  0  0  0  0  0  0  0  0  0  0
    0.8413   -0.4675   -2.7630 C   0  0  0  0  0  0  0  0  0  0  0  0
    1.3431   -0.3337   -1.4942 C   0  0  0  0  0  0  0  0  0  0  0  0
    2.5520    0.2858   -1.2913 O   0  0  0  0  0  0  0  0  0  0  0  0
    3.1977    0.5025   -0.0869 C   0  0  0  0  0  0  0  0  0  0  0  0
    4.4711    1.1966   -0.2717 C   0  0  0  0  0  0  0  0  0  0  0  0
    4.4784    2.5736   -0.2438 C   0  0  0  0  0  0  0  0  0  0  0  0
    5.6568    3.2639   -0.4138 C   0  0  0  0  0  0  0  0  0  0  0  0
    6.8410    2.5590   -0.6142 C   0  0  0  0  0  0  0  0  0  0  0  0
    6.8439    1.1792   -0.6438 C   0  0  0  0  0  0  0  0  0  0  0  0
    5.6696    0.5181   -0.4738 C   0  0  0  0  0  0  0  0  0  0  0  0
    0.5386   -0.8676   -0.4631 C   0  0  0  0  0  0  0  0  0  0  0  0
   -2.5672   -1.0727    0.6962 N   0  0  0  0  0  0  0  0  0  0  0  0
   -2.3924    0.3006    0.9966 C   0  0  0  0  0  0  0  0  0  0  0  0
   -2.3934    0.6382    2.3273 C   0  0  0  0  0  0  0  0  0  0  0  0
   -2.2306    1.9560    2.7571 C   0  0  0  0  0  0  0  0  0  0  0  0
   -2.0604    2.9838    1.8548 C   0  0  0  0  0  0  0  0  0  0  0  0
   -2.0584    2.6514    0.5166 C   0  0  0  0  0  0  0  0  0  0  0  0
   -1.8422    3.9538   -0.6411 Cl  0  0  0  0  0  0  0  0  0  0  0  0
   -2.2222    1.3352    0.1236 C   0  0  0  0  0  0  0  0  0  0  0  0
   -3.8465   -1.5794    0.5083 C   0  0  0  0  0  0  0  0  0  0  0  0
   -4.9153   -0.5849    0.6500 N   0  0  0  0  0  0  0  0  0  0  0  0
   -4.1678   -2.8014    0.2305 N   0  0  0  0  0  0  0  0  0  0  0  0
  1  2  1  0
  2  3  2  0
  3  4  1  0
  4  5  1  6
  5  6  2  0
  6  7  1  0
  7  8  2  0
  8  9  1  0
  9 10  1  0
 10 11  1  0
 11 12  1  0
 12 13  2  0
 13 14  1  0
 14 15  2  0
 15 16  1  0
 16 17  2  0
  9 18  2  0
  4 19  1  0
 19 20  1  0
 20 21  2  0
 21 22  1  0
 22 23  2  0
 23 24  1  0
 24 25  1  0
 24 26  2  0
 19 27  1  0
 27 28  1  0
 27 29  2  0
 29  2  1  0
 18  5  1  0
 26 20  1  0
 17 12  1  0
M  END
>  <zinc_id>  (893) 
ZINC000013559318

>  <ortholog_name>  (893) 
DRTS_PLAFK

>  <gene_name>  (893) 
DRTS_PLAFK

>  <affinity>  (893) 
8.49

>  <chembldocid>  (893) 
17662

>  <title>  (893) 
None

>  <reference.pubmed_id>  (893) 
14736247

>  <reference.doi>  (893) 
None

>  <reference.chembl_id>  (893) 
CHEMBL1138835

>  <reference.journal>  (893) 
J. Med. Chem.

>  <reference.year>  (893) 
2004

$$$$

     RDKit          3D

 29 32  0  0  0  0  0  0  0  0999 V2000
   -3.3642   -5.0732   -0.1972 N   0  0  0  0  0  0  0  0  0  0  0  0
   -3.0333   -3.6669    0.1201 C   0  0  0  0  0  0  0  0  0  0  0  0
   -1.8569   -3.3379    0.2640 N   0  0  0  0  0  0  0  0  0  0  0  0
   -1.3858   -1.9957    0.5766 C   0  0  1  0  0  0  0  0  0  0  0  0
   -0.6560   -1.4726   -0.7325 C   0  0  0  0  0  0  0  0  0  0  0  0
   -1.0870   -1.5724   -1.9666 C   0  0  0  0  0  0  0  0  0  0  0  0
   -0.3537   -1.0718   -3.0416 C   0  0  0  0  0  0  0  0  0  0  0  0
    0.8413   -0.4675   -2.7630 C   0  0  0  0  0  0  0  0  0  0  0  0
    1.3431   -0.3337   -1.4942 C   0  0  0  0  0  0  0  0  0  0  0  0
    2.5520    0.2858   -1.2913 O   0  0  0  0  0  0  0  0  0  0  0  0
    3.1977    0.5025   -0.0869 C   0  0  0  0  0  0  0  0  0  0  0  0
    4.4711    1.1966   -0.2717 C   0  0  0  0  0  0  0  0  0  0  0  0
    4.4784    2.5736   -0.2438 C   0  0  0  0  0  0  0  0  0  0  0  0
    5.6568    3.2639   -0.4138 C   0  0  0  0  0  0  0  0  0  0  0  0
    6.8410    2.5590   -0.6142 C   0  0  0  0  0  0  0  0  0  0  0  0
    6.8439    1.1792   -0.6438 C   0  0  0  0  0  0  0  0  0  0  0  0
    5.6696    0.5181   -0.4738 C   0  0  0  0  0  0  0  0  0  0  0  0
    0.5386   -0.8676   -0.4631 C   0  0  0  0  0  0  0  0  0  0  0  0
   -2.5672   -1.0727    0.6962 N   0  0  0  0  0  0  0  0  0  0  0  0
   -2.3924    0.3006    0.9966 C   0  0  0  0  0  0  0  0  0  0  0  0
   -2.3934    0.6382    2.3273 C   0  0  0  0  0  0  0  0  0  0  0  0
   -2.2306    1.9560    2.7571 C   0  0  0  0  0  0  0  0  0  0  0  0
   -2.0604    2.9838    1.8548 C   0  0  0  0  0  0  0  0  0  0  0  0
   -2.0584    2.6514    0.5166 C   0  0  0  0  0  0  0  0  0  0  0  0
   -1.8422    3.9538   -0.6411 Cl  0  0  0  0  0  0  0  0  0  0  0  0
   -2.2222    1.3352    0.1236 C   0  0  0  0  0  0  0  0  0  0  0  0
   -3.8465   -1.5794    0.5083 C   0  0  0  0  0  0  0  0  0  0  0  0
   -4.9153   -0.5849    0.6500 N   0  0  0  0  0  0  0  0  0  0  0  0
   -4.1678   -2.8014    0.2305 N   0  0  0  0  0  0  0  0  0  0  0  0
  1  2  1  0
  2  3  2  0
  3  4  1  0
  4  5  1  6
  5  6  2  0
  6  7  1  0
  7  8  2  0
  8  9  1  0
  9 10  1  0
 10 11  1  0
 11 12  1  0
 12 13  2  0
 13 14  1  0
 14 15  2  0
 15 16  1  0
 16 17  2  0
  9 18  2  0
  4 19  1  0
 19 20  1  0
 20 21  2  0
 21 22  1  0
 22 23  2  0
 23 24  1  0
 24 25  1  0
 24 26  2  0
 19 27  1  0
 27 28  1  0
 27 29  2  0
 29  2  1  0
 18  5  1  0
 26 20  1  0
 17 12  1  0
M  END
>  <zinc_id>  (894) 
ZINC000013559318

>  <ortholog_name>  (894) 
DRTS_PLAFK

>  <gene_name>  (894) 
DRTS_PLAFK

>  <affinity>  (894) 
8.44

>  <chembldocid>  (894) 
17662

>  <title>  (894) 
None

>  <reference.pubmed_id>  (894) 
14736247

>  <reference.doi>  (894) 
None

>  <reference.chembl_id>  (894) 
CHEMBL1138835

>  <reference.journal>  (894) 
J. Med. Chem.

>  <reference.year>  (894) 
2004

$$$$

     RDKit          3D

 29 32  0  0  0  0  0  0  0  0999 V2000
   -3.3642   -5.0732   -0.1972 N   0  0  0  0  0  0  0  0  0  0  0  0
   -3.0333   -3.6669    0.1201 C   0  0  0  0  0  0  0  0  0  0  0  0
   -1.8569   -3.3379    0.2640 N   0  0  0  0  0  0  0  0  0  0  0  0
   -1.3858   -1.9957    0.5766 C   0  0  1  0  0  0  0  0  0  0  0  0
   -0.6560   -1.4726   -0.7325 C   0  0  0  0  0  0  0  0  0  0  0  0
   -1.0870   -1.5724   -1.9666 C   0  0  0  0  0  0  0  0  0  0  0  0
   -0.3537   -1.0718   -3.0416 C   0  0  0  0  0  0  0  0  0  0  0  0
    0.8413   -0.4675   -2.7630 C   0  0  0  0  0  0  0  0  0  0  0  0
    1.3431   -0.3337   -1.4942 C   0  0  0  0  0  0  0  0  0  0  0  0
    2.5520    0.2858   -1.2913 O   0  0  0  0  0  0  0  0  0  0  0  0
    3.1977    0.5025   -0.0869 C   0  0  0  0  0  0  0  0  0  0  0  0
    4.4711    1.1966   -0.2717 C   0  0  0  0  0  0  0  0  0  0  0  0
    4.4784    2.5736   -0.2438 C   0  0  0  0  0  0  0  0  0  0  0  0
    5.6568    3.2639   -0.4138 C   0  0  0  0  0  0  0  0  0  0  0  0
    6.8410    2.5590   -0.6142 C   0  0  0  0  0  0  0  0  0  0  0  0
    6.8439    1.1792   -0.6438 C   0  0  0  0  0  0  0  0  0  0  0  0
    5.6696    0.5181   -0.4738 C   0  0  0  0  0  0  0  0  0  0  0  0
    0.5386   -0.8676   -0.4631 C   0  0  0  0  0  0  0  0  0  0  0  0
   -2.5672   -1.0727    0.6962 N   0  0  0  0  0  0  0  0  0  0  0  0
   -2.3924    0.3006    0.9966 C   0  0  0  0  0  0  0  0  0  0  0  0
   -2.3934    0.6382    2.3273 C   0  0  0  0  0  0  0  0  0  0  0  0
   -2.2306    1.9560    2.7571 C   0  0  0  0  0  0  0  0  0  0  0  0
   -2.0604    2.9838    1.8548 C   0  0  0  0  0  0  0  0  0  0  0  0
   -2.0584    2.6514    0.5166 C   0  0  0  0  0  0  0  0  0  0  0  0
   -1.8422    3.9538   -0.6411 Cl  0  0  0  0  0  0  0  0  0  0  0  0
   -2.2222    1.3352    0.1236 C   0  0  0  0  0  0  0  0  0  0  0  0
   -3.8465   -1.5794    0.5083 C   0  0  0  0  0  0  0  0  0  0  0  0
   -4.9153   -0.5849    0.6500 N   0  0  0  0  0  0  0  0  0  0  0  0
   -4.1678   -2.8014    0.2305 N   0  0  0  0  0  0  0  0  0  0  0  0
  1  2  1  0
  2  3  2  0
  3  4  1  0
  4  5  1  6
  5  6  2  0
  6  7  1  0
  7  8  2  0
  8  9  1  0
  9 10  1  0
 10 11  1  0
 11 12  1  0
 12 13  2  0
 13 14  1  0
 14 15  2  0
 15 16  1  0
 16 17  2  0
  9 18  2  0
  4 19  1  0
 19 20  1  0
 20 21  2  0
 21 22  1  0
 22 23  2  0
 23 24  1  0
 24 25  1  0
 24 26  2  0
 19 27  1  0
 27 28  1  0
 27 29  2  0
 29  2  1  0
 18  5  1  0
 26 20  1  0
 17 12  1  0
M  END
>  <zinc_id>  (895) 
ZINC000013559318

>  <ortholog_name>  (895) 
DRTS_PLAFK

>  <gene_name>  (895) 
DRTS_PLAFK

>  <affinity>  (895) 
5.48

>  <chembldocid>  (895) 
17662

>  <title>  (895) 
None

>  <reference.pubmed_id>  (895) 
14736247

>  <reference.doi>  (895) 
None

>  <reference.chembl_id>  (895) 
CHEMBL1138835

>  <reference.journal>  (895) 
J. Med. Chem.

>  <reference.year>  (895) 
2004

$$$$

     RDKit          3D

 29 32  0  0  0  0  0  0  0  0999 V2000
   -3.3642   -5.0732   -0.1972 N   0  0  0  0  0  0  0  0  0  0  0  0
   -3.0333   -3.6669    0.1201 C   0  0  0  0  0  0  0  0  0  0  0  0
   -1.8569   -3.3379    0.2640 N   0  0  0  0  0  0  0  0  0  0  0  0
   -1.3858   -1.9957    0.5766 C   0  0  1  0  0  0  0  0  0  0  0  0
   -0.6560   -1.4726   -0.7325 C   0  0  0  0  0  0  0  0  0  0  0  0
   -1.0870   -1.5724   -1.9666 C   0  0  0  0  0  0  0  0  0  0  0  0
   -0.3537   -1.0718   -3.0416 C   0  0  0  0  0  0  0  0  0  0  0  0
    0.8413   -0.4675   -2.7630 C   0  0  0  0  0  0  0  0  0  0  0  0
    1.3431   -0.3337   -1.4942 C   0  0  0  0  0  0  0  0  0  0  0  0
    2.5520    0.2858   -1.2913 O   0  0  0  0  0  0  0  0  0  0  0  0
    3.1977    0.5025   -0.0869 C   0  0  0  0  0  0  0  0  0  0  0  0
    4.4711    1.1966   -0.2717 C   0  0  0  0  0  0  0  0  0  0  0  0
    4.4784    2.5736   -0.2438 C   0  0  0  0  0  0  0  0  0  0  0  0
    5.6568    3.2639   -0.4138 C   0  0  0  0  0  0  0  0  0  0  0  0
    6.8410    2.5590   -0.6142 C   0  0  0  0  0  0  0  0  0  0  0  0
    6.8439    1.1792   -0.6438 C   0  0  0  0  0  0  0  0  0  0  0  0
    5.6696    0.5181   -0.4738 C   0  0  0  0  0  0  0  0  0  0  0  0
    0.5386   -0.8676   -0.4631 C   0  0  0  0  0  0  0  0  0  0  0  0
   -2.5672   -1.0727    0.6962 N   0  0  0  0  0  0  0  0  0  0  0  0
   -2.3924    0.3006    0.9966 C   0  0  0  0  0  0  0  0  0  0  0  0
   -2.3934    0.6382    2.3273 C   0  0  0  0  0  0  0  0  0  0  0  0
   -2.2306    1.9560    2.7571 C   0  0  0  0  0  0  0  0  0  0  0  0
   -2.0604    2.9838    1.8548 C   0  0  0  0  0  0  0  0  0  0  0  0
   -2.0584    2.6514    0.5166 C   0  0  0  0  0  0  0  0  0  0  0  0
   -1.8422    3.9538   -0.6411 Cl  0  0  0  0  0  0  0  0  0  0  0  0
   -2.2222    1.3352    0.1236 C   0  0  0  0  0  0  0  0  0  0  0  0
   -3.8465   -1.5794    0.5083 C   0  0  0  0  0  0  0  0  0  0  0  0
   -4.9153   -0.5849    0.6500 N   0  0  0  0  0  0  0  0  0  0  0  0
   -4.1678   -2.8014    0.2305 N   0  0  0  0  0  0  0  0  0  0  0  0
  1  2  1  0
  2  3  2  0
  3  4  1  0
  4  5  1  6
  5  6  2  0
  6  7  1  0
  7  8  2  0
  8  9  1  0
  9 10  1  0
 10 11  1  0
 11 12  1  0
 12 13  2  0
 13 14  1  0
 14 15  2  0
 15 16  1  0
 16 17  2  0
  9 18  2  0
  4 19  1  0
 19 20  1  0
 20 21  2  0
 21 22  1  0
 22 23  2  0
 23 24  1  0
 24 25  1  0
 24 26  2  0
 19 27  1  0
 27 28  1  0
 27 29  2  0
 29  2  1  0
 18  5  1  0
 26 20  1  0
 17 12  1  0
M  END
>  <zinc_id>  (896) 
ZINC000013559318

>  <ortholog_name>  (896) 
DRTS_PLAFK

>  <gene_name>  (896) 
DRTS_PLAFK

>  <affinity>  (896) 
5.40

>  <chembldocid>  (896) 
17662

>  <title>  (896) 
None

>  <reference.pubmed_id>  (896) 
14736247

>  <reference.doi>  (896) 
None

>  <reference.chembl_id>  (896) 
CHEMBL1138835

>  <reference.journal>  (896) 
J. Med. Chem.

>  <reference.year>  (896) 
2004

$$$$

     RDKit          3D

 29 32  0  0  0  0  0  0  0  0999 V2000
   -3.3642   -5.0732   -0.1972 N   0  0  0  0  0  0  0  0  0  0  0  0
   -3.0333   -3.6669    0.1201 C   0  0  0  0  0  0  0  0  0  0  0  0
   -1.8569   -3.3379    0.2640 N   0  0  0  0  0  0  0  0  0  0  0  0
   -1.3858   -1.9957    0.5766 C   0  0  1  0  0  0  0  0  0  0  0  0
   -0.6560   -1.4726   -0.7325 C   0  0  0  0  0  0  0  0  0  0  0  0
   -1.0870   -1.5724   -1.9666 C   0  0  0  0  0  0  0  0  0  0  0  0
   -0.3537   -1.0718   -3.0416 C   0  0  0  0  0  0  0  0  0  0  0  0
    0.8413   -0.4675   -2.7630 C   0  0  0  0  0  0  0  0  0  0  0  0
    1.3431   -0.3337   -1.4942 C   0  0  0  0  0  0  0  0  0  0  0  0
    2.5520    0.2858   -1.2913 O   0  0  0  0  0  0  0  0  0  0  0  0
    3.1977    0.5025   -0.0869 C   0  0  0  0  0  0  0  0  0  0  0  0
    4.4711    1.1966   -0.2717 C   0  0  0  0  0  0  0  0  0  0  0  0
    4.4784    2.5736   -0.2438 C   0  0  0  0  0  0  0  0  0  0  0  0
    5.6568    3.2639   -0.4138 C   0  0  0  0  0  0  0  0  0  0  0  0
    6.8410    2.5590   -0.6142 C   0  0  0  0  0  0  0  0  0  0  0  0
    6.8439    1.1792   -0.6438 C   0  0  0  0  0  0  0  0  0  0  0  0
    5.6696    0.5181   -0.4738 C   0  0  0  0  0  0  0  0  0  0  0  0
    0.5386   -0.8676   -0.4631 C   0  0  0  0  0  0  0  0  0  0  0  0
   -2.5672   -1.0727    0.6962 N   0  0  0  0  0  0  0  0  0  0  0  0
   -2.3924    0.3006    0.9966 C   0  0  0  0  0  0  0  0  0  0  0  0
   -2.3934    0.6382    2.3273 C   0  0  0  0  0  0  0  0  0  0  0  0
   -2.2306    1.9560    2.7571 C   0  0  0  0  0  0  0  0  0  0  0  0
   -2.0604    2.9838    1.8548 C   0  0  0  0  0  0  0  0  0  0  0  0
   -2.0584    2.6514    0.5166 C   0  0  0  0  0  0  0  0  0  0  0  0
   -1.8422    3.9538   -0.6411 Cl  0  0  0  0  0  0  0  0  0  0  0  0
   -2.2222    1.3352    0.1236 C   0  0  0  0  0  0  0  0  0  0  0  0
   -3.8465   -1.5794    0.5083 C   0  0  0  0  0  0  0  0  0  0  0  0
   -4.9153   -0.5849    0.6500 N   0  0  0  0  0  0  0  0  0  0  0  0
   -4.1678   -2.8014    0.2305 N   0  0  0  0  0  0  0  0  0  0  0  0
  1  2  1  0
  2  3  2  0
  3  4  1  0
  4  5  1  6
  5  6  2  0
  6  7  1  0
  7  8  2  0
  8  9  1  0
  9 10  1  0
 10 11  1  0
 11 12  1  0
 12 13  2  0
 13 14  1  0
 14 15  2  0
 15 16  1  0
 16 17  2  0
  9 18  2  0
  4 19  1  0
 19 20  1  0
 20 21  2  0
 21 22  1  0
 22 23  2  0
 23 24  1  0
 24 25  1  0
 24 26  2  0
 19 27  1  0
 27 28  1  0
 27 29  2  0
 29  2  1  0
 18  5  1  0
 26 20  1  0
 17 12  1  0
M  END
>  <zinc_id>  (897) 
ZINC000013559318

>  <ortholog_name>  (897) 
DRTS_PLAFK

>  <gene_name>  (897) 
DRTS_PLAFK

>  <affinity>  (897) 
5.31

>  <chembldocid>  (897) 
17662

>  <title>  (897) 
None

>  <reference.pubmed_id>  (897) 
14736247

>  <reference.doi>  (897) 
None

>  <reference.chembl_id>  (897) 
CHEMBL1138835

>  <reference.journal>  (897) 
J. Med. Chem.

>  <reference.year>  (897) 
2004

$$$$

     RDKit          3D

 29 32  0  0  0  0  0  0  0  0999 V2000
   -3.3642   -5.0732   -0.1972 N   0  0  0  0  0  0  0  0  0  0  0  0
   -3.0333   -3.6669    0.1201 C   0  0  0  0  0  0  0  0  0  0  0  0
   -1.8569   -3.3379    0.2640 N   0  0  0  0  0  0  0  0  0  0  0  0
   -1.3858   -1.9957    0.5766 C   0  0  1  0  0  0  0  0  0  0  0  0
   -0.6560   -1.4726   -0.7325 C   0  0  0  0  0  0  0  0  0  0  0  0
   -1.0870   -1.5724   -1.9666 C   0  0  0  0  0  0  0  0  0  0  0  0
   -0.3537   -1.0718   -3.0416 C   0  0  0  0  0  0  0  0  0  0  0  0
    0.8413   -0.4675   -2.7630 C   0  0  0  0  0  0  0  0  0  0  0  0
    1.3431   -0.3337   -1.4942 C   0  0  0  0  0  0  0  0  0  0  0  0
    2.5520    0.2858   -1.2913 O   0  0  0  0  0  0  0  0  0  0  0  0
    3.1977    0.5025   -0.0869 C   0  0  0  0  0  0  0  0  0  0  0  0
    4.4711    1.1966   -0.2717 C   0  0  0  0  0  0  0  0  0  0  0  0
    4.4784    2.5736   -0.2438 C   0  0  0  0  0  0  0  0  0  0  0  0
    5.6568    3.2639   -0.4138 C   0  0  0  0  0  0  0  0  0  0  0  0
    6.8410    2.5590   -0.6142 C   0  0  0  0  0  0  0  0  0  0  0  0
    6.8439    1.1792   -0.6438 C   0  0  0  0  0  0  0  0  0  0  0  0
    5.6696    0.5181   -0.4738 C   0  0  0  0  0  0  0  0  0  0  0  0
    0.5386   -0.8676   -0.4631 C   0  0  0  0  0  0  0  0  0  0  0  0
   -2.5672   -1.0727    0.6962 N   0  0  0  0  0  0  0  0  0  0  0  0
   -2.3924    0.3006    0.9966 C   0  0  0  0  0  0  0  0  0  0  0  0
   -2.3934    0.6382    2.3273 C   0  0  0  0  0  0  0  0  0  0  0  0
   -2.2306    1.9560    2.7571 C   0  0  0  0  0  0  0  0  0  0  0  0
   -2.0604    2.9838    1.8548 C   0  0  0  0  0  0  0  0  0  0  0  0
   -2.0584    2.6514    0.5166 C   0  0  0  0  0  0  0  0  0  0  0  0
   -1.8422    3.9538   -0.6411 Cl  0  0  0  0  0  0  0  0  0  0  0  0
   -2.2222    1.3352    0.1236 C   0  0  0  0  0  0  0  0  0  0  0  0
   -3.8465   -1.5794    0.5083 C   0  0  0  0  0  0  0  0  0  0  0  0
   -4.9153   -0.5849    0.6500 N   0  0  0  0  0  0  0  0  0  0  0  0
   -4.1678   -2.8014    0.2305 N   0  0  0  0  0  0  0  0  0  0  0  0
  1  2  1  0
  2  3  2  0
  3  4  1  0
  4  5  1  6
  5  6  2  0
  6  7  1  0
  7  8  2  0
  8  9  1  0
  9 10  1  0
 10 11  1  0
 11 12  1  0
 12 13  2  0
 13 14  1  0
 14 15  2  0
 15 16  1  0
 16 17  2  0
  9 18  2  0
  4 19  1  0
 19 20  1  0
 20 21  2  0
 21 22  1  0
 22 23  2  0
 23 24  1  0
 24 25  1  0
 24 26  2  0
 19 27  1  0
 27 28  1  0
 27 29  2  0
 29  2  1  0
 18  5  1  0
 26 20  1  0
 17 12  1  0
M  END
>  <zinc_id>  (898) 
ZINC000013559318

>  <ortholog_name>  (898) 
DRTS_PLAFK

>  <gene_name>  (898) 
DRTS_PLAFK

>  <affinity>  (898) 
8.11

>  <chembldocid>  (898) 
17662

>  <title>  (898) 
None

>  <reference.pubmed_id>  (898) 
14736247

>  <reference.doi>  (898) 
None

>  <reference.chembl_id>  (898) 
CHEMBL1138835

>  <reference.journal>  (898) 
J. Med. Chem.

>  <reference.year>  (898) 
2004

$$$$

     RDKit          3D

 29 32  0  0  0  0  0  0  0  0999 V2000
   -3.3642   -5.0732   -0.1972 N   0  0  0  0  0  0  0  0  0  0  0  0
   -3.0333   -3.6669    0.1201 C   0  0  0  0  0  0  0  0  0  0  0  0
   -1.8569   -3.3379    0.2640 N   0  0  0  0  0  0  0  0  0  0  0  0
   -1.3858   -1.9957    0.5766 C   0  0  1  0  0  0  0  0  0  0  0  0
   -0.6560   -1.4726   -0.7325 C   0  0  0  0  0  0  0  0  0  0  0  0
   -1.0870   -1.5724   -1.9666 C   0  0  0  0  0  0  0  0  0  0  0  0
   -0.3537   -1.0718   -3.0416 C   0  0  0  0  0  0  0  0  0  0  0  0
    0.8413   -0.4675   -2.7630 C   0  0  0  0  0  0  0  0  0  0  0  0
    1.3431   -0.3337   -1.4942 C   0  0  0  0  0  0  0  0  0  0  0  0
    2.5520    0.2858   -1.2913 O   0  0  0  0  0  0  0  0  0  0  0  0
    3.1977    0.5025   -0.0869 C   0  0  0  0  0  0  0  0  0  0  0  0
    4.4711    1.1966   -0.2717 C   0  0  0  0  0  0  0  0  0  0  0  0
    4.4784    2.5736   -0.2438 C   0  0  0  0  0  0  0  0  0  0  0  0
    5.6568    3.2639   -0.4138 C   0  0  0  0  0  0  0  0  0  0  0  0
    6.8410    2.5590   -0.6142 C   0  0  0  0  0  0  0  0  0  0  0  0
    6.8439    1.1792   -0.6438 C   0  0  0  0  0  0  0  0  0  0  0  0
    5.6696    0.5181   -0.4738 C   0  0  0  0  0  0  0  0  0  0  0  0
    0.5386   -0.8676   -0.4631 C   0  0  0  0  0  0  0  0  0  0  0  0
   -2.5672   -1.0727    0.6962 N   0  0  0  0  0  0  0  0  0  0  0  0
   -2.3924    0.3006    0.9966 C   0  0  0  0  0  0  0  0  0  0  0  0
   -2.3934    0.6382    2.3273 C   0  0  0  0  0  0  0  0  0  0  0  0
   -2.2306    1.9560    2.7571 C   0  0  0  0  0  0  0  0  0  0  0  0
   -2.0604    2.9838    1.8548 C   0  0  0  0  0  0  0  0  0  0  0  0
   -2.0584    2.6514    0.5166 C   0  0  0  0  0  0  0  0  0  0  0  0
   -1.8422    3.9538   -0.6411 Cl  0  0  0  0  0  0  0  0  0  0  0  0
   -2.2222    1.3352    0.1236 C   0  0  0  0  0  0  0  0  0  0  0  0
   -3.8465   -1.5794    0.5083 C   0  0  0  0  0  0  0  0  0  0  0  0
   -4.9153   -0.5849    0.6500 N   0  0  0  0  0  0  0  0  0  0  0  0
   -4.1678   -2.8014    0.2305 N   0  0  0  0  0  0  0  0  0  0  0  0
  1  2  1  0
  2  3  2  0
  3  4  1  0
  4  5  1  6
  5  6  2  0
  6  7  1  0
  7  8  2  0
  8  9  1  0
  9 10  1  0
 10 11  1  0
 11 12  1  0
 12 13  2  0
 13 14  1  0
 14 15  2  0
 15 16  1  0
 16 17  2  0
  9 18  2  0
  4 19  1  0
 19 20  1  0
 20 21  2  0
 21 22  1  0
 22 23  2  0
 23 24  1  0
 24 25  1  0
 24 26  2  0
 19 27  1  0
 27 28  1  0
 27 29  2  0
 29  2  1  0
 18  5  1  0
 26 20  1  0
 17 12  1  0
M  END
>  <zinc_id>  (899) 
ZINC000013559318

>  <ortholog_name>  (899) 
DRTS_PLAFK

>  <gene_name>  (899) 
DRTS_PLAFK

>  <affinity>  (899) 
5.12

>  <chembldocid>  (899) 
17662

>  <title>  (899) 
None

>  <reference.pubmed_id>  (899) 
14736247

>  <reference.doi>  (899) 
None

>  <reference.chembl_id>  (899) 
CHEMBL1138835

>  <reference.journal>  (899) 
J. Med. Chem.

>  <reference.year>  (899) 
2004

$$$$

     RDKit          3D

 29 32  0  0  0  0  0  0  0  0999 V2000
   -3.3642   -5.0732   -0.1972 N   0  0  0  0  0  0  0  0  0  0  0  0
   -3.0333   -3.6669    0.1201 C   0  0  0  0  0  0  0  0  0  0  0  0
   -1.8569   -3.3379    0.2640 N   0  0  0  0  0  0  0  0  0  0  0  0
   -1.3858   -1.9957    0.5766 C   0  0  1  0  0  0  0  0  0  0  0  0
   -0.6560   -1.4726   -0.7325 C   0  0  0  0  0  0  0  0  0  0  0  0
   -1.0870   -1.5724   -1.9666 C   0  0  0  0  0  0  0  0  0  0  0  0
   -0.3537   -1.0718   -3.0416 C   0  0  0  0  0  0  0  0  0  0  0  0
    0.8413   -0.4675   -2.7630 C   0  0  0  0  0  0  0  0  0  0  0  0
    1.3431   -0.3337   -1.4942 C   0  0  0  0  0  0  0  0  0  0  0  0
    2.5520    0.2858   -1.2913 O   0  0  0  0  0  0  0  0  0  0  0  0
    3.1977    0.5025   -0.0869 C   0  0  0  0  0  0  0  0  0  0  0  0
    4.4711    1.1966   -0.2717 C   0  0  0  0  0  0  0  0  0  0  0  0
    4.4784    2.5736   -0.2438 C   0  0  0  0  0  0  0  0  0  0  0  0
    5.6568    3.2639   -0.4138 C   0  0  0  0  0  0  0  0  0  0  0  0
    6.8410    2.5590   -0.6142 C   0  0  0  0  0  0  0  0  0  0  0  0
    6.8439    1.1792   -0.6438 C   0  0  0  0  0  0  0  0  0  0  0  0
    5.6696    0.5181   -0.4738 C   0  0  0  0  0  0  0  0  0  0  0  0
    0.5386   -0.8676   -0.4631 C   0  0  0  0  0  0  0  0  0  0  0  0
   -2.5672   -1.0727    0.6962 N   0  0  0  0  0  0  0  0  0  0  0  0
   -2.3924    0.3006    0.9966 C   0  0  0  0  0  0  0  0  0  0  0  0
   -2.3934    0.6382    2.3273 C   0  0  0  0  0  0  0  0  0  0  0  0
   -2.2306    1.9560    2.7571 C   0  0  0  0  0  0  0  0  0  0  0  0
   -2.0604    2.9838    1.8548 C   0  0  0  0  0  0  0  0  0  0  0  0
   -2.0584    2.6514    0.5166 C   0  0  0  0  0  0  0  0  0  0  0  0
   -1.8422    3.9538   -0.6411 Cl  0  0  0  0  0  0  0  0  0  0  0  0
   -2.2222    1.3352    0.1236 C   0  0  0  0  0  0  0  0  0  0  0  0
   -3.8465   -1.5794    0.5083 C   0  0  0  0  0  0  0  0  0  0  0  0
   -4.9153   -0.5849    0.6500 N   0  0  0  0  0  0  0  0  0  0  0  0
   -4.1678   -2.8014    0.2305 N   0  0  0  0  0  0  0  0  0  0  0  0
  1  2  1  0
  2  3  2  0
  3  4  1  0
  4  5  1  6
  5  6  2  0
  6  7  1  0
  7  8  2  0
  8  9  1  0
  9 10  1  0
 10 11  1  0
 11 12  1  0
 12 13  2  0
 13 14  1  0
 14 15  2  0
 15 16  1  0
 16 17  2  0
  9 18  2  0
  4 19  1  0
 19 20  1  0
 20 21  2  0
 21 22  1  0
 22 23  2  0
 23 24  1  0
 24 25  1  0
 24 26  2  0
 19 27  1  0
 27 28  1  0
 27 29  2  0
 29  2  1  0
 18  5  1  0
 26 20  1  0
 17 12  1  0
M  END
>  <zinc_id>  (900) 
ZINC000013559318

>  <ortholog_name>  (900) 
DRTS_PLAFK

>  <gene_name>  (900) 
DRTS_PLAFK

>  <affinity>  (900) 
5.09

>  <chembldocid>  (900) 
17662

>  <title>  (900) 
None

>  <reference.pubmed_id>  (900) 
14736247

>  <reference.doi>  (900) 
None

>  <reference.chembl_id>  (900) 
CHEMBL1138835

>  <reference.journal>  (900) 
J. Med. Chem.

>  <reference.year>  (900) 
2004

$$$$

     RDKit          3D

 29 32  0  0  0  0  0  0  0  0999 V2000
   -1.1410   -3.2300   -3.3553 N   0  0  0  0  0  0  0  0  0  0  0  0
   -1.5629   -2.0435   -2.6109 C   0  0  0  0  0  0  0  0  0  0  0  0
   -0.8467   -1.0430   -2.7003 N   0  0  0  0  0  0  0  0  0  0  0  0
   -1.0835    0.2251   -2.0480 C   0  0  2  0  0  0  0  0  0  0  0  0
    0.0442    0.3445   -0.9821 C   0  0  0  0  0  0  0  0  0  0  0  0
    0.6723    1.5393   -0.8998 C   0  0  0  0  0  0  0  0  0  0  0  0
    1.7145    1.7266    0.0504 C   0  0  0  0  0  0  0  0  0  0  0  0
    2.0418    0.6702    0.8543 C   0  0  0  0  0  0  0  0  0  0  0  0
    1.4045   -0.5278    0.7643 C   0  0  0  0  0  0  0  0  0  0  0  0
    1.6635   -1.6519    1.5308 O   0  0  0  0  0  0  0  0  0  0  0  0
    2.6368   -1.7341    2.5335 C   0  0  0  0  0  0  0  0  0  0  0  0
    3.9705   -1.4779    1.9610 C   0  0  0  0  0  0  0  0  0  0  0  0
    4.6548   -2.5350    1.4068 C   0  0  0  0  0  0  0  0  0  0  0  0
    5.9091   -2.4007    0.8483 C   0  0  0  0  0  0  0  0  0  0  0  0
    6.4668   -1.1344    0.8662 C   0  0  0  0  0  0  0  0  0  0  0  0
    5.7799   -0.0541    1.4267 C   0  0  0  0  0  0  0  0  0  0  0  0
    4.5375   -0.2264    1.9713 C   0  0  0  0  0  0  0  0  0  0  0  0
    0.3930   -0.6653   -0.1780 C   0  0  0  0  0  0  0  0  0  0  0  0
   -2.3173    0.1577   -1.2488 N   0  0  0  0  0  0  0  0  0  0  0  0
   -2.7552    1.3199   -0.5031 C   0  0  0  0  0  0  0  0  0  0  0  0
   -2.0572    2.5096   -0.5067 C   0  0  0  0  0  0  0  0  0  0  0  0
   -2.4542    3.6202    0.1915 C   0  0  0  0  0  0  0  0  0  0  0  0
   -3.6096    3.5551    0.9391 C   0  0  0  0  0  0  0  0  0  0  0  0
   -4.3383    2.3879    0.9720 C   0  0  0  0  0  0  0  0  0  0  0  0
   -5.7933    2.3536    1.9320 Cl  0  0  0  0  0  0  0  0  0  0  0  0
   -3.8762    1.2964    0.2376 C   0  0  0  0  0  0  0  0  0  0  0  0
   -3.0374   -1.0165   -1.2244 C   0  0  0  0  0  0  0  0  0  0  0  0
   -4.2454   -0.9556   -0.3925 N   0  0  0  0  0  0  0  0  0  0  0  0
   -2.7709   -2.1287   -1.8359 N   0  0  0  0  0  0  0  0  0  0  0  0
  1  2  1  0
  2  3  2  0
  3  4  1  0
  4  5  1  1
  5  6  2  0
  6  7  1  0
  7  8  2  0
  8  9  1  0
  9 10  1  0
 10 11  1  0
 11 12  1  0
 12 13  2  0
 13 14  1  0
 14 15  2  0
 15 16  1  0
 16 17  2  0
  9 18  2  0
  4 19  1  0
 19 20  1  0
 20 21  2  0
 21 22  1  0
 22 23  2  0
 23 24  1  0
 24 25  1  0
 24 26  2  0
 19 27  1  0
 27 28  1  0
 27 29  2  0
 29  2  1  0
 18  5  1  0
 26 20  1  0
 17 12  1  0
M  END
>  <zinc_id>  (901) 
ZINC000013559319

>  <ortholog_name>  (901) 
DRTS_PLAFK

>  <gene_name>  (901) 
DRTS_PLAFK

>  <affinity>  (901) 
6.72

>  <chembldocid>  (901) 
17662

>  <title>  (901) 
None

>  <reference.pubmed_id>  (901) 
14736247

>  <reference.doi>  (901) 
None

>  <reference.chembl_id>  (901) 
CHEMBL1138835

>  <reference.journal>  (901) 
J. Med. Chem.

>  <reference.year>  (901) 
2004

$$$$

     RDKit          3D

 29 32  0  0  0  0  0  0  0  0999 V2000
   -1.1410   -3.2300   -3.3553 N   0  0  0  0  0  0  0  0  0  0  0  0
   -1.5629   -2.0435   -2.6109 C   0  0  0  0  0  0  0  0  0  0  0  0
   -0.8467   -1.0430   -2.7003 N   0  0  0  0  0  0  0  0  0  0  0  0
   -1.0835    0.2251   -2.0480 C   0  0  2  0  0  0  0  0  0  0  0  0
    0.0442    0.3445   -0.9821 C   0  0  0  0  0  0  0  0  0  0  0  0
    0.6723    1.5393   -0.8998 C   0  0  0  0  0  0  0  0  0  0  0  0
    1.7145    1.7266    0.0504 C   0  0  0  0  0  0  0  0  0  0  0  0
    2.0418    0.6702    0.8543 C   0  0  0  0  0  0  0  0  0  0  0  0
    1.4045   -0.5278    0.7643 C   0  0  0  0  0  0  0  0  0  0  0  0
    1.6635   -1.6519    1.5308 O   0  0  0  0  0  0  0  0  0  0  0  0
    2.6368   -1.7341    2.5335 C   0  0  0  0  0  0  0  0  0  0  0  0
    3.9705   -1.4779    1.9610 C   0  0  0  0  0  0  0  0  0  0  0  0
    4.6548   -2.5350    1.4068 C   0  0  0  0  0  0  0  0  0  0  0  0
    5.9091   -2.4007    0.8483 C   0  0  0  0  0  0  0  0  0  0  0  0
    6.4668   -1.1344    0.8662 C   0  0  0  0  0  0  0  0  0  0  0  0
    5.7799   -0.0541    1.4267 C   0  0  0  0  0  0  0  0  0  0  0  0
    4.5375   -0.2264    1.9713 C   0  0  0  0  0  0  0  0  0  0  0  0
    0.3930   -0.6653   -0.1780 C   0  0  0  0  0  0  0  0  0  0  0  0
   -2.3173    0.1577   -1.2488 N   0  0  0  0  0  0  0  0  0  0  0  0
   -2.7552    1.3199   -0.5031 C   0  0  0  0  0  0  0  0  0  0  0  0
   -2.0572    2.5096   -0.5067 C   0  0  0  0  0  0  0  0  0  0  0  0
   -2.4542    3.6202    0.1915 C   0  0  0  0  0  0  0  0  0  0  0  0
   -3.6096    3.5551    0.9391 C   0  0  0  0  0  0  0  0  0  0  0  0
   -4.3383    2.3879    0.9720 C   0  0  0  0  0  0  0  0  0  0  0  0
   -5.7933    2.3536    1.9320 Cl  0  0  0  0  0  0  0  0  0  0  0  0
   -3.8762    1.2964    0.2376 C   0  0  0  0  0  0  0  0  0  0  0  0
   -3.0374   -1.0165   -1.2244 C   0  0  0  0  0  0  0  0  0  0  0  0
   -4.2454   -0.9556   -0.3925 N   0  0  0  0  0  0  0  0  0  0  0  0
   -2.7709   -2.1287   -1.8359 N   0  0  0  0  0  0  0  0  0  0  0  0
  1  2  1  0
  2  3  2  0
  3  4  1  0
  4  5  1  1
  5  6  2  0
  6  7  1  0
  7  8  2  0
  8  9  1  0
  9 10  1  0
 10 11  1  0
 11 12  1  0
 12 13  2  0
 13 14  1  0
 14 15  2  0
 15 16  1  0
 16 17  2  0
  9 18  2  0
  4 19  1  0
 19 20  1  0
 20 21  2  0
 21 22  1  0
 22 23  2  0
 23 24  1  0
 24 25  1  0
 24 26  2  0
 19 27  1  0
 27 28  1  0
 27 29  2  0
 29  2  1  0
 18  5  1  0
 26 20  1  0
 17 12  1  0
M  END
>  <zinc_id>  (902) 
ZINC000013559319

>  <ortholog_name>  (902) 
DRTS_PLAFK

>  <gene_name>  (902) 
DRTS_PLAFK

>  <affinity>  (902) 
8.64

>  <chembldocid>  (902) 
17662

>  <title>  (902) 
None

>  <reference.pubmed_id>  (902) 
14736247

>  <reference.doi>  (902) 
None

>  <reference.chembl_id>  (902) 
CHEMBL1138835

>  <reference.journal>  (902) 
J. Med. Chem.

>  <reference.year>  (902) 
2004

$$$$

     RDKit          3D

 29 32  0  0  0  0  0  0  0  0999 V2000
   -1.1410   -3.2300   -3.3553 N   0  0  0  0  0  0  0  0  0  0  0  0
   -1.5629   -2.0435   -2.6109 C   0  0  0  0  0  0  0  0  0  0  0  0
   -0.8467   -1.0430   -2.7003 N   0  0  0  0  0  0  0  0  0  0  0  0
   -1.0835    0.2251   -2.0480 C   0  0  2  0  0  0  0  0  0  0  0  0
    0.0442    0.3445   -0.9821 C   0  0  0  0  0  0  0  0  0  0  0  0
    0.6723    1.5393   -0.8998 C   0  0  0  0  0  0  0  0  0  0  0  0
    1.7145    1.7266    0.0504 C   0  0  0  0  0  0  0  0  0  0  0  0
    2.0418    0.6702    0.8543 C   0  0  0  0  0  0  0  0  0  0  0  0
    1.4045   -0.5278    0.7643 C   0  0  0  0  0  0  0  0  0  0  0  0
    1.6635   -1.6519    1.5308 O   0  0  0  0  0  0  0  0  0  0  0  0
    2.6368   -1.7341    2.5335 C   0  0  0  0  0  0  0  0  0  0  0  0
    3.9705   -1.4779    1.9610 C   0  0  0  0  0  0  0  0  0  0  0  0
    4.6548   -2.5350    1.4068 C   0  0  0  0  0  0  0  0  0  0  0  0
    5.9091   -2.4007    0.8483 C   0  0  0  0  0  0  0  0  0  0  0  0
    6.4668   -1.1344    0.8662 C   0  0  0  0  0  0  0  0  0  0  0  0
    5.7799   -0.0541    1.4267 C   0  0  0  0  0  0  0  0  0  0  0  0
    4.5375   -0.2264    1.9713 C   0  0  0  0  0  0  0  0  0  0  0  0
    0.3930   -0.6653   -0.1780 C   0  0  0  0  0  0  0  0  0  0  0  0
   -2.3173    0.1577   -1.2488 N   0  0  0  0  0  0  0  0  0  0  0  0
   -2.7552    1.3199   -0.5031 C   0  0  0  0  0  0  0  0  0  0  0  0
   -2.0572    2.5096   -0.5067 C   0  0  0  0  0  0  0  0  0  0  0  0
   -2.4542    3.6202    0.1915 C   0  0  0  0  0  0  0  0  0  0  0  0
   -3.6096    3.5551    0.9391 C   0  0  0  0  0  0  0  0  0  0  0  0
   -4.3383    2.3879    0.9720 C   0  0  0  0  0  0  0  0  0  0  0  0
   -5.7933    2.3536    1.9320 Cl  0  0  0  0  0  0  0  0  0  0  0  0
   -3.8762    1.2964    0.2376 C   0  0  0  0  0  0  0  0  0  0  0  0
   -3.0374   -1.0165   -1.2244 C   0  0  0  0  0  0  0  0  0  0  0  0
   -4.2454   -0.9556   -0.3925 N   0  0  0  0  0  0  0  0  0  0  0  0
   -2.7709   -2.1287   -1.8359 N   0  0  0  0  0  0  0  0  0  0  0  0
  1  2  1  0
  2  3  2  0
  3  4  1  0
  4  5  1  1
  5  6  2  0
  6  7  1  0
  7  8  2  0
  8  9  1  0
  9 10  1  0
 10 11  1  0
 11 12  1  0
 12 13  2  0
 13 14  1  0
 14 15  2  0
 15 16  1  0
 16 17  2  0
  9 18  2  0
  4 19  1  0
 19 20  1  0
 20 21  2  0
 21 22  1  0
 22 23  2  0
 23 24  1  0
 24 25  1  0
 24 26  2  0
 19 27  1  0
 27 28  1  0
 27 29  2  0
 29  2  1  0
 18  5  1  0
 26 20  1  0
 17 12  1  0
M  END
>  <zinc_id>  (903) 
ZINC000013559319

>  <ortholog_name>  (903) 
DRTS_PLAFK

>  <gene_name>  (903) 
DRTS_PLAFK

>  <affinity>  (903) 
8.49

>  <chembldocid>  (903) 
17662

>  <title>  (903) 
None

>  <reference.pubmed_id>  (903) 
14736247

>  <reference.doi>  (903) 
None

>  <reference.chembl_id>  (903) 
CHEMBL1138835

>  <reference.journal>  (903) 
J. Med. Chem.

>  <reference.year>  (903) 
2004

$$$$

     RDKit          3D

 29 32  0  0  0  0  0  0  0  0999 V2000
   -1.1410   -3.2300   -3.3553 N   0  0  0  0  0  0  0  0  0  0  0  0
   -1.5629   -2.0435   -2.6109 C   0  0  0  0  0  0  0  0  0  0  0  0
   -0.8467   -1.0430   -2.7003 N   0  0  0  0  0  0  0  0  0  0  0  0
   -1.0835    0.2251   -2.0480 C   0  0  2  0  0  0  0  0  0  0  0  0
    0.0442    0.3445   -0.9821 C   0  0  0  0  0  0  0  0  0  0  0  0
    0.6723    1.5393   -0.8998 C   0  0  0  0  0  0  0  0  0  0  0  0
    1.7145    1.7266    0.0504 C   0  0  0  0  0  0  0  0  0  0  0  0
    2.0418    0.6702    0.8543 C   0  0  0  0  0  0  0  0  0  0  0  0
    1.4045   -0.5278    0.7643 C   0  0  0  0  0  0  0  0  0  0  0  0
    1.6635   -1.6519    1.5308 O   0  0  0  0  0  0  0  0  0  0  0  0
    2.6368   -1.7341    2.5335 C   0  0  0  0  0  0  0  0  0  0  0  0
    3.9705   -1.4779    1.9610 C   0  0  0  0  0  0  0  0  0  0  0  0
    4.6548   -2.5350    1.4068 C   0  0  0  0  0  0  0  0  0  0  0  0
    5.9091   -2.4007    0.8483 C   0  0  0  0  0  0  0  0  0  0  0  0
    6.4668   -1.1344    0.8662 C   0  0  0  0  0  0  0  0  0  0  0  0
    5.7799   -0.0541    1.4267 C   0  0  0  0  0  0  0  0  0  0  0  0
    4.5375   -0.2264    1.9713 C   0  0  0  0  0  0  0  0  0  0  0  0
    0.3930   -0.6653   -0.1780 C   0  0  0  0  0  0  0  0  0  0  0  0
   -2.3173    0.1577   -1.2488 N   0  0  0  0  0  0  0  0  0  0  0  0
   -2.7552    1.3199   -0.5031 C   0  0  0  0  0  0  0  0  0  0  0  0
   -2.0572    2.5096   -0.5067 C   0  0  0  0  0  0  0  0  0  0  0  0
   -2.4542    3.6202    0.1915 C   0  0  0  0  0  0  0  0  0  0  0  0
   -3.6096    3.5551    0.9391 C   0  0  0  0  0  0  0  0  0  0  0  0
   -4.3383    2.3879    0.9720 C   0  0  0  0  0  0  0  0  0  0  0  0
   -5.7933    2.3536    1.9320 Cl  0  0  0  0  0  0  0  0  0  0  0  0
   -3.8762    1.2964    0.2376 C   0  0  0  0  0  0  0  0  0  0  0  0
   -3.0374   -1.0165   -1.2244 C   0  0  0  0  0  0  0  0  0  0  0  0
   -4.2454   -0.9556   -0.3925 N   0  0  0  0  0  0  0  0  0  0  0  0
   -2.7709   -2.1287   -1.8359 N   0  0  0  0  0  0  0  0  0  0  0  0
  1  2  1  0
  2  3  2  0
  3  4  1  0
  4  5  1  1
  5  6  2  0
  6  7  1  0
  7  8  2  0
  8  9  1  0
  9 10  1  0
 10 11  1  0
 11 12  1  0
 12 13  2  0
 13 14  1  0
 14 15  2  0
 15 16  1  0
 16 17  2  0
  9 18  2  0
  4 19  1  0
 19 20  1  0
 20 21  2  0
 21 22  1  0
 22 23  2  0
 23 24  1  0
 24 25  1  0
 24 26  2  0
 19 27  1  0
 27 28  1  0
 27 29  2  0
 29  2  1  0
 18  5  1  0
 26 20  1  0
 17 12  1  0
M  END
>  <zinc_id>  (904) 
ZINC000013559319

>  <ortholog_name>  (904) 
DRTS_PLAFK

>  <gene_name>  (904) 
DRTS_PLAFK

>  <affinity>  (904) 
8.44

>  <chembldocid>  (904) 
17662

>  <title>  (904) 
None

>  <reference.pubmed_id>  (904) 
14736247

>  <reference.doi>  (904) 
None

>  <reference.chembl_id>  (904) 
CHEMBL1138835

>  <reference.journal>  (904) 
J. Med. Chem.

>  <reference.year>  (904) 
2004

$$$$

     RDKit          3D

 29 32  0  0  0  0  0  0  0  0999 V2000
   -1.1410   -3.2300   -3.3553 N   0  0  0  0  0  0  0  0  0  0  0  0
   -1.5629   -2.0435   -2.6109 C   0  0  0  0  0  0  0  0  0  0  0  0
   -0.8467   -1.0430   -2.7003 N   0  0  0  0  0  0  0  0  0  0  0  0
   -1.0835    0.2251   -2.0480 C   0  0  2  0  0  0  0  0  0  0  0  0
    0.0442    0.3445   -0.9821 C   0  0  0  0  0  0  0  0  0  0  0  0
    0.6723    1.5393   -0.8998 C   0  0  0  0  0  0  0  0  0  0  0  0
    1.7145    1.7266    0.0504 C   0  0  0  0  0  0  0  0  0  0  0  0
    2.0418    0.6702    0.8543 C   0  0  0  0  0  0  0  0  0  0  0  0
    1.4045   -0.5278    0.7643 C   0  0  0  0  0  0  0  0  0  0  0  0
    1.6635   -1.6519    1.5308 O   0  0  0  0  0  0  0  0  0  0  0  0
    2.6368   -1.7341    2.5335 C   0  0  0  0  0  0  0  0  0  0  0  0
    3.9705   -1.4779    1.9610 C   0  0  0  0  0  0  0  0  0  0  0  0
    4.6548   -2.5350    1.4068 C   0  0  0  0  0  0  0  0  0  0  0  0
    5.9091   -2.4007    0.8483 C   0  0  0  0  0  0  0  0  0  0  0  0
    6.4668   -1.1344    0.8662 C   0  0  0  0  0  0  0  0  0  0  0  0
    5.7799   -0.0541    1.4267 C   0  0  0  0  0  0  0  0  0  0  0  0
    4.5375   -0.2264    1.9713 C   0  0  0  0  0  0  0  0  0  0  0  0
    0.3930   -0.6653   -0.1780 C   0  0  0  0  0  0  0  0  0  0  0  0
   -2.3173    0.1577   -1.2488 N   0  0  0  0  0  0  0  0  0  0  0  0
   -2.7552    1.3199   -0.5031 C   0  0  0  0  0  0  0  0  0  0  0  0
   -2.0572    2.5096   -0.5067 C   0  0  0  0  0  0  0  0  0  0  0  0
   -2.4542    3.6202    0.1915 C   0  0  0  0  0  0  0  0  0  0  0  0
   -3.6096    3.5551    0.9391 C   0  0  0  0  0  0  0  0  0  0  0  0
   -4.3383    2.3879    0.9720 C   0  0  0  0  0  0  0  0  0  0  0  0
   -5.7933    2.3536    1.9320 Cl  0  0  0  0  0  0  0  0  0  0  0  0
   -3.8762    1.2964    0.2376 C   0  0  0  0  0  0  0  0  0  0  0  0
   -3.0374   -1.0165   -1.2244 C   0  0  0  0  0  0  0  0  0  0  0  0
   -4.2454   -0.9556   -0.3925 N   0  0  0  0  0  0  0  0  0  0  0  0
   -2.7709   -2.1287   -1.8359 N   0  0  0  0  0  0  0  0  0  0  0  0
  1  2  1  0
  2  3  2  0
  3  4  1  0
  4  5  1  1
  5  6  2  0
  6  7  1  0
  7  8  2  0
  8  9  1  0
  9 10  1  0
 10 11  1  0
 11 12  1  0
 12 13  2  0
 13 14  1  0
 14 15  2  0
 15 16  1  0
 16 17  2  0
  9 18  2  0
  4 19  1  0
 19 20  1  0
 20 21  2  0
 21 22  1  0
 22 23  2  0
 23 24  1  0
 24 25  1  0
 24 26  2  0
 19 27  1  0
 27 28  1  0
 27 29  2  0
 29  2  1  0
 18  5  1  0
 26 20  1  0
 17 12  1  0
M  END
>  <zinc_id>  (905) 
ZINC000013559319

>  <ortholog_name>  (905) 
DRTS_PLAFK

>  <gene_name>  (905) 
DRTS_PLAFK

>  <affinity>  (905) 
5.48

>  <chembldocid>  (905) 
17662

>  <title>  (905) 
None

>  <reference.pubmed_id>  (905) 
14736247

>  <reference.doi>  (905) 
None

>  <reference.chembl_id>  (905) 
CHEMBL1138835

>  <reference.journal>  (905) 
J. Med. Chem.

>  <reference.year>  (905) 
2004

$$$$

     RDKit          3D

 29 32  0  0  0  0  0  0  0  0999 V2000
   -1.1410   -3.2300   -3.3553 N   0  0  0  0  0  0  0  0  0  0  0  0
   -1.5629   -2.0435   -2.6109 C   0  0  0  0  0  0  0  0  0  0  0  0
   -0.8467   -1.0430   -2.7003 N   0  0  0  0  0  0  0  0  0  0  0  0
   -1.0835    0.2251   -2.0480 C   0  0  2  0  0  0  0  0  0  0  0  0
    0.0442    0.3445   -0.9821 C   0  0  0  0  0  0  0  0  0  0  0  0
    0.6723    1.5393   -0.8998 C   0  0  0  0  0  0  0  0  0  0  0  0
    1.7145    1.7266    0.0504 C   0  0  0  0  0  0  0  0  0  0  0  0
    2.0418    0.6702    0.8543 C   0  0  0  0  0  0  0  0  0  0  0  0
    1.4045   -0.5278    0.7643 C   0  0  0  0  0  0  0  0  0  0  0  0
    1.6635   -1.6519    1.5308 O   0  0  0  0  0  0  0  0  0  0  0  0
    2.6368   -1.7341    2.5335 C   0  0  0  0  0  0  0  0  0  0  0  0
    3.9705   -1.4779    1.9610 C   0  0  0  0  0  0  0  0  0  0  0  0
    4.6548   -2.5350    1.4068 C   0  0  0  0  0  0  0  0  0  0  0  0
    5.9091   -2.4007    0.8483 C   0  0  0  0  0  0  0  0  0  0  0  0
    6.4668   -1.1344    0.8662 C   0  0  0  0  0  0  0  0  0  0  0  0
    5.7799   -0.0541    1.4267 C   0  0  0  0  0  0  0  0  0  0  0  0
    4.5375   -0.2264    1.9713 C   0  0  0  0  0  0  0  0  0  0  0  0
    0.3930   -0.6653   -0.1780 C   0  0  0  0  0  0  0  0  0  0  0  0
   -2.3173    0.1577   -1.2488 N   0  0  0  0  0  0  0  0  0  0  0  0
   -2.7552    1.3199   -0.5031 C   0  0  0  0  0  0  0  0  0  0  0  0
   -2.0572    2.5096   -0.5067 C   0  0  0  0  0  0  0  0  0  0  0  0
   -2.4542    3.6202    0.1915 C   0  0  0  0  0  0  0  0  0  0  0  0
   -3.6096    3.5551    0.9391 C   0  0  0  0  0  0  0  0  0  0  0  0
   -4.3383    2.3879    0.9720 C   0  0  0  0  0  0  0  0  0  0  0  0
   -5.7933    2.3536    1.9320 Cl  0  0  0  0  0  0  0  0  0  0  0  0
   -3.8762    1.2964    0.2376 C   0  0  0  0  0  0  0  0  0  0  0  0
   -3.0374   -1.0165   -1.2244 C   0  0  0  0  0  0  0  0  0  0  0  0
   -4.2454   -0.9556   -0.3925 N   0  0  0  0  0  0  0  0  0  0  0  0
   -2.7709   -2.1287   -1.8359 N   0  0  0  0  0  0  0  0  0  0  0  0
  1  2  1  0
  2  3  2  0
  3  4  1  0
  4  5  1  1
  5  6  2  0
  6  7  1  0
  7  8  2  0
  8  9  1  0
  9 10  1  0
 10 11  1  0
 11 12  1  0
 12 13  2  0
 13 14  1  0
 14 15  2  0
 15 16  1  0
 16 17  2  0
  9 18  2  0
  4 19  1  0
 19 20  1  0
 20 21  2  0
 21 22  1  0
 22 23  2  0
 23 24  1  0
 24 25  1  0
 24 26  2  0
 19 27  1  0
 27 28  1  0
 27 29  2  0
 29  2  1  0
 18  5  1  0
 26 20  1  0
 17 12  1  0
M  END
>  <zinc_id>  (906) 
ZINC000013559319

>  <ortholog_name>  (906) 
DRTS_PLAFK

>  <gene_name>  (906) 
DRTS_PLAFK

>  <affinity>  (906) 
5.40

>  <chembldocid>  (906) 
17662

>  <title>  (906) 
None

>  <reference.pubmed_id>  (906) 
14736247

>  <reference.doi>  (906) 
None

>  <reference.chembl_id>  (906) 
CHEMBL1138835

>  <reference.journal>  (906) 
J. Med. Chem.

>  <reference.year>  (906) 
2004

$$$$

     RDKit          3D

 29 32  0  0  0  0  0  0  0  0999 V2000
   -1.1410   -3.2300   -3.3553 N   0  0  0  0  0  0  0  0  0  0  0  0
   -1.5629   -2.0435   -2.6109 C   0  0  0  0  0  0  0  0  0  0  0  0
   -0.8467   -1.0430   -2.7003 N   0  0  0  0  0  0  0  0  0  0  0  0
   -1.0835    0.2251   -2.0480 C   0  0  2  0  0  0  0  0  0  0  0  0
    0.0442    0.3445   -0.9821 C   0  0  0  0  0  0  0  0  0  0  0  0
    0.6723    1.5393   -0.8998 C   0  0  0  0  0  0  0  0  0  0  0  0
    1.7145    1.7266    0.0504 C   0  0  0  0  0  0  0  0  0  0  0  0
    2.0418    0.6702    0.8543 C   0  0  0  0  0  0  0  0  0  0  0  0
    1.4045   -0.5278    0.7643 C   0  0  0  0  0  0  0  0  0  0  0  0
    1.6635   -1.6519    1.5308 O   0  0  0  0  0  0  0  0  0  0  0  0
    2.6368   -1.7341    2.5335 C   0  0  0  0  0  0  0  0  0  0  0  0
    3.9705   -1.4779    1.9610 C   0  0  0  0  0  0  0  0  0  0  0  0
    4.6548   -2.5350    1.4068 C   0  0  0  0  0  0  0  0  0  0  0  0
    5.9091   -2.4007    0.8483 C   0  0  0  0  0  0  0  0  0  0  0  0
    6.4668   -1.1344    0.8662 C   0  0  0  0  0  0  0  0  0  0  0  0
    5.7799   -0.0541    1.4267 C   0  0  0  0  0  0  0  0  0  0  0  0
    4.5375   -0.2264    1.9713 C   0  0  0  0  0  0  0  0  0  0  0  0
    0.3930   -0.6653   -0.1780 C   0  0  0  0  0  0  0  0  0  0  0  0
   -2.3173    0.1577   -1.2488 N   0  0  0  0  0  0  0  0  0  0  0  0
   -2.7552    1.3199   -0.5031 C   0  0  0  0  0  0  0  0  0  0  0  0
   -2.0572    2.5096   -0.5067 C   0  0  0  0  0  0  0  0  0  0  0  0
   -2.4542    3.6202    0.1915 C   0  0  0  0  0  0  0  0  0  0  0  0
   -3.6096    3.5551    0.9391 C   0  0  0  0  0  0  0  0  0  0  0  0
   -4.3383    2.3879    0.9720 C   0  0  0  0  0  0  0  0  0  0  0  0
   -5.7933    2.3536    1.9320 Cl  0  0  0  0  0  0  0  0  0  0  0  0
   -3.8762    1.2964    0.2376 C   0  0  0  0  0  0  0  0  0  0  0  0
   -3.0374   -1.0165   -1.2244 C   0  0  0  0  0  0  0  0  0  0  0  0
   -4.2454   -0.9556   -0.3925 N   0  0  0  0  0  0  0  0  0  0  0  0
   -2.7709   -2.1287   -1.8359 N   0  0  0  0  0  0  0  0  0  0  0  0
  1  2  1  0
  2  3  2  0
  3  4  1  0
  4  5  1  1
  5  6  2  0
  6  7  1  0
  7  8  2  0
  8  9  1  0
  9 10  1  0
 10 11  1  0
 11 12  1  0
 12 13  2  0
 13 14  1  0
 14 15  2  0
 15 16  1  0
 16 17  2  0
  9 18  2  0
  4 19  1  0
 19 20  1  0
 20 21  2  0
 21 22  1  0
 22 23  2  0
 23 24  1  0
 24 25  1  0
 24 26  2  0
 19 27  1  0
 27 28  1  0
 27 29  2  0
 29  2  1  0
 18  5  1  0
 26 20  1  0
 17 12  1  0
M  END
>  <zinc_id>  (907) 
ZINC000013559319

>  <ortholog_name>  (907) 
DRTS_PLAFK

>  <gene_name>  (907) 
DRTS_PLAFK

>  <affinity>  (907) 
5.31

>  <chembldocid>  (907) 
17662

>  <title>  (907) 
None

>  <reference.pubmed_id>  (907) 
14736247

>  <reference.doi>  (907) 
None

>  <reference.chembl_id>  (907) 
CHEMBL1138835

>  <reference.journal>  (907) 
J. Med. Chem.

>  <reference.year>  (907) 
2004

$$$$

     RDKit          3D

 29 32  0  0  0  0  0  0  0  0999 V2000
   -1.1410   -3.2300   -3.3553 N   0  0  0  0  0  0  0  0  0  0  0  0
   -1.5629   -2.0435   -2.6109 C   0  0  0  0  0  0  0  0  0  0  0  0
   -0.8467   -1.0430   -2.7003 N   0  0  0  0  0  0  0  0  0  0  0  0
   -1.0835    0.2251   -2.0480 C   0  0  2  0  0  0  0  0  0  0  0  0
    0.0442    0.3445   -0.9821 C   0  0  0  0  0  0  0  0  0  0  0  0
    0.6723    1.5393   -0.8998 C   0  0  0  0  0  0  0  0  0  0  0  0
    1.7145    1.7266    0.0504 C   0  0  0  0  0  0  0  0  0  0  0  0
    2.0418    0.6702    0.8543 C   0  0  0  0  0  0  0  0  0  0  0  0
    1.4045   -0.5278    0.7643 C   0  0  0  0  0  0  0  0  0  0  0  0
    1.6635   -1.6519    1.5308 O   0  0  0  0  0  0  0  0  0  0  0  0
    2.6368   -1.7341    2.5335 C   0  0  0  0  0  0  0  0  0  0  0  0
    3.9705   -1.4779    1.9610 C   0  0  0  0  0  0  0  0  0  0  0  0
    4.6548   -2.5350    1.4068 C   0  0  0  0  0  0  0  0  0  0  0  0
    5.9091   -2.4007    0.8483 C   0  0  0  0  0  0  0  0  0  0  0  0
    6.4668   -1.1344    0.8662 C   0  0  0  0  0  0  0  0  0  0  0  0
    5.7799   -0.0541    1.4267 C   0  0  0  0  0  0  0  0  0  0  0  0
    4.5375   -0.2264    1.9713 C   0  0  0  0  0  0  0  0  0  0  0  0
    0.3930   -0.6653   -0.1780 C   0  0  0  0  0  0  0  0  0  0  0  0
   -2.3173    0.1577   -1.2488 N   0  0  0  0  0  0  0  0  0  0  0  0
   -2.7552    1.3199   -0.5031 C   0  0  0  0  0  0  0  0  0  0  0  0
   -2.0572    2.5096   -0.5067 C   0  0  0  0  0  0  0  0  0  0  0  0
   -2.4542    3.6202    0.1915 C   0  0  0  0  0  0  0  0  0  0  0  0
   -3.6096    3.5551    0.9391 C   0  0  0  0  0  0  0  0  0  0  0  0
   -4.3383    2.3879    0.9720 C   0  0  0  0  0  0  0  0  0  0  0  0
   -5.7933    2.3536    1.9320 Cl  0  0  0  0  0  0  0  0  0  0  0  0
   -3.8762    1.2964    0.2376 C   0  0  0  0  0  0  0  0  0  0  0  0
   -3.0374   -1.0165   -1.2244 C   0  0  0  0  0  0  0  0  0  0  0  0
   -4.2454   -0.9556   -0.3925 N   0  0  0  0  0  0  0  0  0  0  0  0
   -2.7709   -2.1287   -1.8359 N   0  0  0  0  0  0  0  0  0  0  0  0
  1  2  1  0
  2  3  2  0
  3  4  1  0
  4  5  1  1
  5  6  2  0
  6  7  1  0
  7  8  2  0
  8  9  1  0
  9 10  1  0
 10 11  1  0
 11 12  1  0
 12 13  2  0
 13 14  1  0
 14 15  2  0
 15 16  1  0
 16 17  2  0
  9 18  2  0
  4 19  1  0
 19 20  1  0
 20 21  2  0
 21 22  1  0
 22 23  2  0
 23 24  1  0
 24 25  1  0
 24 26  2  0
 19 27  1  0
 27 28  1  0
 27 29  2  0
 29  2  1  0
 18  5  1  0
 26 20  1  0
 17 12  1  0
M  END
>  <zinc_id>  (908) 
ZINC000013559319

>  <ortholog_name>  (908) 
DRTS_PLAFK

>  <gene_name>  (908) 
DRTS_PLAFK

>  <affinity>  (908) 
8.11

>  <chembldocid>  (908) 
17662

>  <title>  (908) 
None

>  <reference.pubmed_id>  (908) 
14736247

>  <reference.doi>  (908) 
None

>  <reference.chembl_id>  (908) 
CHEMBL1138835

>  <reference.journal>  (908) 
J. Med. Chem.

>  <reference.year>  (908) 
2004

$$$$

     RDKit          3D

 29 32  0  0  0  0  0  0  0  0999 V2000
   -1.1410   -3.2300   -3.3553 N   0  0  0  0  0  0  0  0  0  0  0  0
   -1.5629   -2.0435   -2.6109 C   0  0  0  0  0  0  0  0  0  0  0  0
   -0.8467   -1.0430   -2.7003 N   0  0  0  0  0  0  0  0  0  0  0  0
   -1.0835    0.2251   -2.0480 C   0  0  2  0  0  0  0  0  0  0  0  0
    0.0442    0.3445   -0.9821 C   0  0  0  0  0  0  0  0  0  0  0  0
    0.6723    1.5393   -0.8998 C   0  0  0  0  0  0  0  0  0  0  0  0
    1.7145    1.7266    0.0504 C   0  0  0  0  0  0  0  0  0  0  0  0
    2.0418    0.6702    0.8543 C   0  0  0  0  0  0  0  0  0  0  0  0
    1.4045   -0.5278    0.7643 C   0  0  0  0  0  0  0  0  0  0  0  0
    1.6635   -1.6519    1.5308 O   0  0  0  0  0  0  0  0  0  0  0  0
    2.6368   -1.7341    2.5335 C   0  0  0  0  0  0  0  0  0  0  0  0
    3.9705   -1.4779    1.9610 C   0  0  0  0  0  0  0  0  0  0  0  0
    4.6548   -2.5350    1.4068 C   0  0  0  0  0  0  0  0  0  0  0  0
    5.9091   -2.4007    0.8483 C   0  0  0  0  0  0  0  0  0  0  0  0
    6.4668   -1.1344    0.8662 C   0  0  0  0  0  0  0  0  0  0  0  0
    5.7799   -0.0541    1.4267 C   0  0  0  0  0  0  0  0  0  0  0  0
    4.5375   -0.2264    1.9713 C   0  0  0  0  0  0  0  0  0  0  0  0
    0.3930   -0.6653   -0.1780 C   0  0  0  0  0  0  0  0  0  0  0  0
   -2.3173    0.1577   -1.2488 N   0  0  0  0  0  0  0  0  0  0  0  0
   -2.7552    1.3199   -0.5031 C   0  0  0  0  0  0  0  0  0  0  0  0
   -2.0572    2.5096   -0.5067 C   0  0  0  0  0  0  0  0  0  0  0  0
   -2.4542    3.6202    0.1915 C   0  0  0  0  0  0  0  0  0  0  0  0
   -3.6096    3.5551    0.9391 C   0  0  0  0  0  0  0  0  0  0  0  0
   -4.3383    2.3879    0.9720 C   0  0  0  0  0  0  0  0  0  0  0  0
   -5.7933    2.3536    1.9320 Cl  0  0  0  0  0  0  0  0  0  0  0  0
   -3.8762    1.2964    0.2376 C   0  0  0  0  0  0  0  0  0  0  0  0
   -3.0374   -1.0165   -1.2244 C   0  0  0  0  0  0  0  0  0  0  0  0
   -4.2454   -0.9556   -0.3925 N   0  0  0  0  0  0  0  0  0  0  0  0
   -2.7709   -2.1287   -1.8359 N   0  0  0  0  0  0  0  0  0  0  0  0
  1  2  1  0
  2  3  2  0
  3  4  1  0
  4  5  1  1
  5  6  2  0
  6  7  1  0
  7  8  2  0
  8  9  1  0
  9 10  1  0
 10 11  1  0
 11 12  1  0
 12 13  2  0
 13 14  1  0
 14 15  2  0
 15 16  1  0
 16 17  2  0
  9 18  2  0
  4 19  1  0
 19 20  1  0
 20 21  2  0
 21 22  1  0
 22 23  2  0
 23 24  1  0
 24 25  1  0
 24 26  2  0
 19 27  1  0
 27 28  1  0
 27 29  2  0
 29  2  1  0
 18  5  1  0
 26 20  1  0
 17 12  1  0
M  END
>  <zinc_id>  (909) 
ZINC000013559319

>  <ortholog_name>  (909) 
DRTS_PLAFK

>  <gene_name>  (909) 
DRTS_PLAFK

>  <affinity>  (909) 
5.12

>  <chembldocid>  (909) 
17662

>  <title>  (909) 
None

>  <reference.pubmed_id>  (909) 
14736247

>  <reference.doi>  (909) 
None

>  <reference.chembl_id>  (909) 
CHEMBL1138835

>  <reference.journal>  (909) 
J. Med. Chem.

>  <reference.year>  (909) 
2004

$$$$

     RDKit          3D

 29 32  0  0  0  0  0  0  0  0999 V2000
   -1.1410   -3.2300   -3.3553 N   0  0  0  0  0  0  0  0  0  0  0  0
   -1.5629   -2.0435   -2.6109 C   0  0  0  0  0  0  0  0  0  0  0  0
   -0.8467   -1.0430   -2.7003 N   0  0  0  0  0  0  0  0  0  0  0  0
   -1.0835    0.2251   -2.0480 C   0  0  2  0  0  0  0  0  0  0  0  0
    0.0442    0.3445   -0.9821 C   0  0  0  0  0  0  0  0  0  0  0  0
    0.6723    1.5393   -0.8998 C   0  0  0  0  0  0  0  0  0  0  0  0
    1.7145    1.7266    0.0504 C   0  0  0  0  0  0  0  0  0  0  0  0
    2.0418    0.6702    0.8543 C   0  0  0  0  0  0  0  0  0  0  0  0
    1.4045   -0.5278    0.7643 C   0  0  0  0  0  0  0  0  0  0  0  0
    1.6635   -1.6519    1.5308 O   0  0  0  0  0  0  0  0  0  0  0  0
    2.6368   -1.7341    2.5335 C   0  0  0  0  0  0  0  0  0  0  0  0
    3.9705   -1.4779    1.9610 C   0  0  0  0  0  0  0  0  0  0  0  0
    4.6548   -2.5350    1.4068 C   0  0  0  0  0  0  0  0  0  0  0  0
    5.9091   -2.4007    0.8483 C   0  0  0  0  0  0  0  0  0  0  0  0
    6.4668   -1.1344    0.8662 C   0  0  0  0  0  0  0  0  0  0  0  0
    5.7799   -0.0541    1.4267 C   0  0  0  0  0  0  0  0  0  0  0  0
    4.5375   -0.2264    1.9713 C   0  0  0  0  0  0  0  0  0  0  0  0
    0.3930   -0.6653   -0.1780 C   0  0  0  0  0  0  0  0  0  0  0  0
   -2.3173    0.1577   -1.2488 N   0  0  0  0  0  0  0  0  0  0  0  0
   -2.7552    1.3199   -0.5031 C   0  0  0  0  0  0  0  0  0  0  0  0
   -2.0572    2.5096   -0.5067 C   0  0  0  0  0  0  0  0  0  0  0  0
   -2.4542    3.6202    0.1915 C   0  0  0  0  0  0  0  0  0  0  0  0
   -3.6096    3.5551    0.9391 C   0  0  0  0  0  0  0  0  0  0  0  0
   -4.3383    2.3879    0.9720 C   0  0  0  0  0  0  0  0  0  0  0  0
   -5.7933    2.3536    1.9320 Cl  0  0  0  0  0  0  0  0  0  0  0  0
   -3.8762    1.2964    0.2376 C   0  0  0  0  0  0  0  0  0  0  0  0
   -3.0374   -1.0165   -1.2244 C   0  0  0  0  0  0  0  0  0  0  0  0
   -4.2454   -0.9556   -0.3925 N   0  0  0  0  0  0  0  0  0  0  0  0
   -2.7709   -2.1287   -1.8359 N   0  0  0  0  0  0  0  0  0  0  0  0
  1  2  1  0
  2  3  2  0
  3  4  1  0
  4  5  1  1
  5  6  2  0
  6  7  1  0
  7  8  2  0
  8  9  1  0
  9 10  1  0
 10 11  1  0
 11 12  1  0
 12 13  2  0
 13 14  1  0
 14 15  2  0
 15 16  1  0
 16 17  2  0
  9 18  2  0
  4 19  1  0
 19 20  1  0
 20 21  2  0
 21 22  1  0
 22 23  2  0
 23 24  1  0
 24 25  1  0
 24 26  2  0
 19 27  1  0
 27 28  1  0
 27 29  2  0
 29  2  1  0
 18  5  1  0
 26 20  1  0
 17 12  1  0
M  END
>  <zinc_id>  (910) 
ZINC000013559319

>  <ortholog_name>  (910) 
DRTS_PLAFK

>  <gene_name>  (910) 
DRTS_PLAFK

>  <affinity>  (910) 
5.09

>  <chembldocid>  (910) 
17662

>  <title>  (910) 
None

>  <reference.pubmed_id>  (910) 
14736247

>  <reference.doi>  (910) 
None

>  <reference.chembl_id>  (910) 
CHEMBL1138835

>  <reference.journal>  (910) 
J. Med. Chem.

>  <reference.year>  (910) 
2004

$$$$

     RDKit          3D

 29 32  0  0  0  0  0  0  0  0999 V2000
    1.3160    3.1873    1.8075 N   0  0  0  0  0  0  0  0  0  0  0  0
    0.1465    2.4678    1.4167 C   0  0  0  0  0  0  0  0  0  0  0  0
   -0.0515    2.2179    0.2500 N   0  0  0  0  0  0  0  0  0  0  0  0
   -1.2046    1.4737   -0.4224 C   0  0  1  0  0  0  0  0  0  0  0  0
   -0.5074    0.0512   -0.6647 C   0  0  0  0  0  0  0  0  0  0  0  0
   -1.0345   -1.1117   -0.3825 C   0  0  0  0  0  0  0  0  0  0  0  0
   -0.3443   -2.2583   -0.6450 C   0  0  0  0  0  0  0  0  0  0  0  0
    0.9063   -2.1724   -1.2073 C   0  0  0  0  0  0  0  0  0  0  0  0
    1.4755   -0.9568   -1.5104 C   0  0  0  0  0  0  0  0  0  0  0  0
    2.7146   -0.8693   -2.0676 O   0  0  0  0  0  0  0  0  0  0  0  0
    3.8617   -0.7791   -1.2969 C   0  0  0  0  0  0  0  0  0  0  0  0
    5.1232   -0.6897   -1.8268 C   0  0  0  0  0  0  0  0  0  0  0  0
    6.2075   -0.6037   -0.9844 C   0  0  0  0  0  0  0  0  0  0  0  0
    6.0723   -0.6041    0.3901 C   0  0  0  0  0  0  0  0  0  0  0  0
    7.4568   -0.4944    1.4499 Cl  0  0  0  0  0  0  0  0  0  0  0  0
    4.8068   -0.6937    0.9356 C   0  0  0  0  0  0  0  0  0  0  0  0
    3.7337   -0.7790    0.0742 C   0  0  0  0  0  0  0  0  0  0  0  0
    0.7208    0.1723   -1.2184 C   0  0  0  0  0  0  0  0  0  0  0  0
   -2.1072    1.1283    0.7959 N   0  0  0  0  0  0  0  0  0  0  0  0
   -3.3061    0.4298    0.3898 C   0  0  0  0  0  0  0  0  0  0  0  0
   -4.1950    0.0500    1.3387 C   0  0  0  0  0  0  0  0  0  0  0  0
   -5.3740   -0.6284    0.9872 C   0  0  0  0  0  0  0  0  0  0  0  0
   -5.6521   -0.9230   -0.3347 C   0  0  0  0  0  0  0  0  0  0  0  0
   -7.1215   -1.7719   -0.8034 Cl  0  0  0  0  0  0  0  0  0  0  0  0
   -4.7415   -0.5327   -1.2946 C   0  0  0  0  0  0  0  0  0  0  0  0
   -3.5685    0.1448   -0.9217 C   0  0  0  0  0  0  0  0  0  0  0  0
   -1.8124    1.4439    2.0862 C   0  0  0  0  0  0  0  0  0  0  0  0
   -2.7657    1.0227    3.0829 N   0  0  0  0  0  0  0  0  0  0  0  0
   -0.7553    2.0786    2.4256 N   0  0  0  0  0  0  0  0  0  0  0  0
  1  2  1  0
  2  3  2  0
  3  4  1  0
  4  5  1  1
  5  6  2  0
  6  7  1  0
  7  8  2  0
  8  9  1  0
  9 10  1  0
 10 11  1  0
 11 12  2  0
 12 13  1  0
 13 14  2  0
 14 15  1  0
 14 16  1  0
 16 17  2  0
  9 18  2  0
  4 19  1  0
 19 20  1  0
 20 21  2  0
 21 22  1  0
 22 23  2  0
 23 24  1  0
 23 25  1  0
 25 26  2  0
 19 27  1  0
 27 28  1  0
 27 29  2  0
 29  2  1  0
 18  5  1  0
 26 20  1  0
 17 11  1  0
M  END
>  <zinc_id>  (911) 
ZINC000013559320

>  <ortholog_name>  (911) 
DRTS_PLAFK

>  <gene_name>  (911) 
DRTS_PLAFK

>  <affinity>  (911) 
8.85

>  <chembldocid>  (911) 
17662

>  <title>  (911) 
None

>  <reference.pubmed_id>  (911) 
14736247

>  <reference.doi>  (911) 
None

>  <reference.chembl_id>  (911) 
CHEMBL1138835

>  <reference.journal>  (911) 
J. Med. Chem.

>  <reference.year>  (911) 
2004

$$$$

     RDKit          3D

 29 32  0  0  0  0  0  0  0  0999 V2000
    1.3160    3.1873    1.8075 N   0  0  0  0  0  0  0  0  0  0  0  0
    0.1465    2.4678    1.4167 C   0  0  0  0  0  0  0  0  0  0  0  0
   -0.0515    2.2179    0.2500 N   0  0  0  0  0  0  0  0  0  0  0  0
   -1.2046    1.4737   -0.4224 C   0  0  1  0  0  0  0  0  0  0  0  0
   -0.5074    0.0512   -0.6647 C   0  0  0  0  0  0  0  0  0  0  0  0
   -1.0345   -1.1117   -0.3825 C   0  0  0  0  0  0  0  0  0  0  0  0
   -0.3443   -2.2583   -0.6450 C   0  0  0  0  0  0  0  0  0  0  0  0
    0.9063   -2.1724   -1.2073 C   0  0  0  0  0  0  0  0  0  0  0  0
    1.4755   -0.9568   -1.5104 C   0  0  0  0  0  0  0  0  0  0  0  0
    2.7146   -0.8693   -2.0676 O   0  0  0  0  0  0  0  0  0  0  0  0
    3.8617   -0.7791   -1.2969 C   0  0  0  0  0  0  0  0  0  0  0  0
    5.1232   -0.6897   -1.8268 C   0  0  0  0  0  0  0  0  0  0  0  0
    6.2075   -0.6037   -0.9844 C   0  0  0  0  0  0  0  0  0  0  0  0
    6.0723   -0.6041    0.3901 C   0  0  0  0  0  0  0  0  0  0  0  0
    7.4568   -0.4944    1.4499 Cl  0  0  0  0  0  0  0  0  0  0  0  0
    4.8068   -0.6937    0.9356 C   0  0  0  0  0  0  0  0  0  0  0  0
    3.7337   -0.7790    0.0742 C   0  0  0  0  0  0  0  0  0  0  0  0
    0.7208    0.1723   -1.2184 C   0  0  0  0  0  0  0  0  0  0  0  0
   -2.1072    1.1283    0.7959 N   0  0  0  0  0  0  0  0  0  0  0  0
   -3.3061    0.4298    0.3898 C   0  0  0  0  0  0  0  0  0  0  0  0
   -4.1950    0.0500    1.3387 C   0  0  0  0  0  0  0  0  0  0  0  0
   -5.3740   -0.6284    0.9872 C   0  0  0  0  0  0  0  0  0  0  0  0
   -5.6521   -0.9230   -0.3347 C   0  0  0  0  0  0  0  0  0  0  0  0
   -7.1215   -1.7719   -0.8034 Cl  0  0  0  0  0  0  0  0  0  0  0  0
   -4.7415   -0.5327   -1.2946 C   0  0  0  0  0  0  0  0  0  0  0  0
   -3.5685    0.1448   -0.9217 C   0  0  0  0  0  0  0  0  0  0  0  0
   -1.8124    1.4439    2.0862 C   0  0  0  0  0  0  0  0  0  0  0  0
   -2.7657    1.0227    3.0829 N   0  0  0  0  0  0  0  0  0  0  0  0
   -0.7553    2.0786    2.4256 N   0  0  0  0  0  0  0  0  0  0  0  0
  1  2  1  0
  2  3  2  0
  3  4  1  0
  4  5  1  1
  5  6  2  0
  6  7  1  0
  7  8  2  0
  8  9  1  0
  9 10  1  0
 10 11  1  0
 11 12  2  0
 12 13  1  0
 13 14  2  0
 14 15  1  0
 14 16  1  0
 16 17  2  0
  9 18  2  0
  4 19  1  0
 19 20  1  0
 20 21  2  0
 21 22  1  0
 22 23  2  0
 23 24  1  0
 23 25  1  0
 25 26  2  0
 19 27  1  0
 27 28  1  0
 27 29  2  0
 29  2  1  0
 18  5  1  0
 26 20  1  0
 17 11  1  0
M  END
>  <zinc_id>  (912) 
ZINC000013559320

>  <ortholog_name>  (912) 
DRTS_PLAFK

>  <gene_name>  (912) 
DRTS_PLAFK

>  <affinity>  (912) 
6.92

>  <chembldocid>  (912) 
17662

>  <title>  (912) 
None

>  <reference.pubmed_id>  (912) 
14736247

>  <reference.doi>  (912) 
None

>  <reference.chembl_id>  (912) 
CHEMBL1138835

>  <reference.journal>  (912) 
J. Med. Chem.

>  <reference.year>  (912) 
2004

$$$$

     RDKit          3D

 29 32  0  0  0  0  0  0  0  0999 V2000
    1.3160    3.1873    1.8075 N   0  0  0  0  0  0  0  0  0  0  0  0
    0.1465    2.4678    1.4167 C   0  0  0  0  0  0  0  0  0  0  0  0
   -0.0515    2.2179    0.2500 N   0  0  0  0  0  0  0  0  0  0  0  0
   -1.2046    1.4737   -0.4224 C   0  0  1  0  0  0  0  0  0  0  0  0
   -0.5074    0.0512   -0.6647 C   0  0  0  0  0  0  0  0  0  0  0  0
   -1.0345   -1.1117   -0.3825 C   0  0  0  0  0  0  0  0  0  0  0  0
   -0.3443   -2.2583   -0.6450 C   0  0  0  0  0  0  0  0  0  0  0  0
    0.9063   -2.1724   -1.2073 C   0  0  0  0  0  0  0  0  0  0  0  0
    1.4755   -0.9568   -1.5104 C   0  0  0  0  0  0  0  0  0  0  0  0
    2.7146   -0.8693   -2.0676 O   0  0  0  0  0  0  0  0  0  0  0  0
    3.8617   -0.7791   -1.2969 C   0  0  0  0  0  0  0  0  0  0  0  0
    5.1232   -0.6897   -1.8268 C   0  0  0  0  0  0  0  0  0  0  0  0
    6.2075   -0.6037   -0.9844 C   0  0  0  0  0  0  0  0  0  0  0  0
    6.0723   -0.6041    0.3901 C   0  0  0  0  0  0  0  0  0  0  0  0
    7.4568   -0.4944    1.4499 Cl  0  0  0  0  0  0  0  0  0  0  0  0
    4.8068   -0.6937    0.9356 C   0  0  0  0  0  0  0  0  0  0  0  0
    3.7337   -0.7790    0.0742 C   0  0  0  0  0  0  0  0  0  0  0  0
    0.7208    0.1723   -1.2184 C   0  0  0  0  0  0  0  0  0  0  0  0
   -2.1072    1.1283    0.7959 N   0  0  0  0  0  0  0  0  0  0  0  0
   -3.3061    0.4298    0.3898 C   0  0  0  0  0  0  0  0  0  0  0  0
   -4.1950    0.0500    1.3387 C   0  0  0  0  0  0  0  0  0  0  0  0
   -5.3740   -0.6284    0.9872 C   0  0  0  0  0  0  0  0  0  0  0  0
   -5.6521   -0.9230   -0.3347 C   0  0  0  0  0  0  0  0  0  0  0  0
   -7.1215   -1.7719   -0.8034 Cl  0  0  0  0  0  0  0  0  0  0  0  0
   -4.7415   -0.5327   -1.2946 C   0  0  0  0  0  0  0  0  0  0  0  0
   -3.5685    0.1448   -0.9217 C   0  0  0  0  0  0  0  0  0  0  0  0
   -1.8124    1.4439    2.0862 C   0  0  0  0  0  0  0  0  0  0  0  0
   -2.7657    1.0227    3.0829 N   0  0  0  0  0  0  0  0  0  0  0  0
   -0.7553    2.0786    2.4256 N   0  0  0  0  0  0  0  0  0  0  0  0
  1  2  1  0
  2  3  2  0
  3  4  1  0
  4  5  1  1
  5  6  2  0
  6  7  1  0
  7  8  2  0
  8  9  1  0
  9 10  1  0
 10 11  1  0
 11 12  2  0
 12 13  1  0
 13 14  2  0
 14 15  1  0
 14 16  1  0
 16 17  2  0
  9 18  2  0
  4 19  1  0
 19 20  1  0
 20 21  2  0
 21 22  1  0
 22 23  2  0
 23 24  1  0
 23 25  1  0
 25 26  2  0
 19 27  1  0
 27 28  1  0
 27 29  2  0
 29  2  1  0
 18  5  1  0
 26 20  1  0
 17 11  1  0
M  END
>  <zinc_id>  (913) 
ZINC000013559320

>  <ortholog_name>  (913) 
DRTS_PLAFK

>  <gene_name>  (913) 
DRTS_PLAFK

>  <affinity>  (913) 
6.82

>  <chembldocid>  (913) 
17662

>  <title>  (913) 
None

>  <reference.pubmed_id>  (913) 
14736247

>  <reference.doi>  (913) 
None

>  <reference.chembl_id>  (913) 
CHEMBL1138835

>  <reference.journal>  (913) 
J. Med. Chem.

>  <reference.year>  (913) 
2004

$$$$

     RDKit          3D

 29 32  0  0  0  0  0  0  0  0999 V2000
    1.3160    3.1873    1.8075 N   0  0  0  0  0  0  0  0  0  0  0  0
    0.1465    2.4678    1.4167 C   0  0  0  0  0  0  0  0  0  0  0  0
   -0.0515    2.2179    0.2500 N   0  0  0  0  0  0  0  0  0  0  0  0
   -1.2046    1.4737   -0.4224 C   0  0  1  0  0  0  0  0  0  0  0  0
   -0.5074    0.0512   -0.6647 C   0  0  0  0  0  0  0  0  0  0  0  0
   -1.0345   -1.1117   -0.3825 C   0  0  0  0  0  0  0  0  0  0  0  0
   -0.3443   -2.2583   -0.6450 C   0  0  0  0  0  0  0  0  0  0  0  0
    0.9063   -2.1724   -1.2073 C   0  0  0  0  0  0  0  0  0  0  0  0
    1.4755   -0.9568   -1.5104 C   0  0  0  0  0  0  0  0  0  0  0  0
    2.7146   -0.8693   -2.0676 O   0  0  0  0  0  0  0  0  0  0  0  0
    3.8617   -0.7791   -1.2969 C   0  0  0  0  0  0  0  0  0  0  0  0
    5.1232   -0.6897   -1.8268 C   0  0  0  0  0  0  0  0  0  0  0  0
    6.2075   -0.6037   -0.9844 C   0  0  0  0  0  0  0  0  0  0  0  0
    6.0723   -0.6041    0.3901 C   0  0  0  0  0  0  0  0  0  0  0  0
    7.4568   -0.4944    1.4499 Cl  0  0  0  0  0  0  0  0  0  0  0  0
    4.8068   -0.6937    0.9356 C   0  0  0  0  0  0  0  0  0  0  0  0
    3.7337   -0.7790    0.0742 C   0  0  0  0  0  0  0  0  0  0  0  0
    0.7208    0.1723   -1.2184 C   0  0  0  0  0  0  0  0  0  0  0  0
   -2.1072    1.1283    0.7959 N   0  0  0  0  0  0  0  0  0  0  0  0
   -3.3061    0.4298    0.3898 C   0  0  0  0  0  0  0  0  0  0  0  0
   -4.1950    0.0500    1.3387 C   0  0  0  0  0  0  0  0  0  0  0  0
   -5.3740   -0.6284    0.9872 C   0  0  0  0  0  0  0  0  0  0  0  0
   -5.6521   -0.9230   -0.3347 C   0  0  0  0  0  0  0  0  0  0  0  0
   -7.1215   -1.7719   -0.8034 Cl  0  0  0  0  0  0  0  0  0  0  0  0
   -4.7415   -0.5327   -1.2946 C   0  0  0  0  0  0  0  0  0  0  0  0
   -3.5685    0.1448   -0.9217 C   0  0  0  0  0  0  0  0  0  0  0  0
   -1.8124    1.4439    2.0862 C   0  0  0  0  0  0  0  0  0  0  0  0
   -2.7657    1.0227    3.0829 N   0  0  0  0  0  0  0  0  0  0  0  0
   -0.7553    2.0786    2.4256 N   0  0  0  0  0  0  0  0  0  0  0  0
  1  2  1  0
  2  3  2  0
  3  4  1  0
  4  5  1  1
  5  6  2  0
  6  7  1  0
  7  8  2  0
  8  9  1  0
  9 10  1  0
 10 11  1  0
 11 12  2  0
 12 13  1  0
 13 14  2  0
 14 15  1  0
 14 16  1  0
 16 17  2  0
  9 18  2  0
  4 19  1  0
 19 20  1  0
 20 21  2  0
 21 22  1  0
 22 23  2  0
 23 24  1  0
 23 25  1  0
 25 26  2  0
 19 27  1  0
 27 28  1  0
 27 29  2  0
 29  2  1  0
 18  5  1  0
 26 20  1  0
 17 11  1  0
M  END
>  <zinc_id>  (914) 
ZINC000013559320

>  <ortholog_name>  (914) 
DRTS_PLAFK

>  <gene_name>  (914) 
DRTS_PLAFK

>  <affinity>  (914) 
5.55

>  <chembldocid>  (914) 
17662

>  <title>  (914) 
None

>  <reference.pubmed_id>  (914) 
14736247

>  <reference.doi>  (914) 
None

>  <reference.chembl_id>  (914) 
CHEMBL1138835

>  <reference.journal>  (914) 
J. Med. Chem.

>  <reference.year>  (914) 
2004

$$$$

     RDKit          3D

 29 32  0  0  0  0  0  0  0  0999 V2000
    1.3160    3.1873    1.8075 N   0  0  0  0  0  0  0  0  0  0  0  0
    0.1465    2.4678    1.4167 C   0  0  0  0  0  0  0  0  0  0  0  0
   -0.0515    2.2179    0.2500 N   0  0  0  0  0  0  0  0  0  0  0  0
   -1.2046    1.4737   -0.4224 C   0  0  1  0  0  0  0  0  0  0  0  0
   -0.5074    0.0512   -0.6647 C   0  0  0  0  0  0  0  0  0  0  0  0
   -1.0345   -1.1117   -0.3825 C   0  0  0  0  0  0  0  0  0  0  0  0
   -0.3443   -2.2583   -0.6450 C   0  0  0  0  0  0  0  0  0  0  0  0
    0.9063   -2.1724   -1.2073 C   0  0  0  0  0  0  0  0  0  0  0  0
    1.4755   -0.9568   -1.5104 C   0  0  0  0  0  0  0  0  0  0  0  0
    2.7146   -0.8693   -2.0676 O   0  0  0  0  0  0  0  0  0  0  0  0
    3.8617   -0.7791   -1.2969 C   0  0  0  0  0  0  0  0  0  0  0  0
    5.1232   -0.6897   -1.8268 C   0  0  0  0  0  0  0  0  0  0  0  0
    6.2075   -0.6037   -0.9844 C   0  0  0  0  0  0  0  0  0  0  0  0
    6.0723   -0.6041    0.3901 C   0  0  0  0  0  0  0  0  0  0  0  0
    7.4568   -0.4944    1.4499 Cl  0  0  0  0  0  0  0  0  0  0  0  0
    4.8068   -0.6937    0.9356 C   0  0  0  0  0  0  0  0  0  0  0  0
    3.7337   -0.7790    0.0742 C   0  0  0  0  0  0  0  0  0  0  0  0
    0.7208    0.1723   -1.2184 C   0  0  0  0  0  0  0  0  0  0  0  0
   -2.1072    1.1283    0.7959 N   0  0  0  0  0  0  0  0  0  0  0  0
   -3.3061    0.4298    0.3898 C   0  0  0  0  0  0  0  0  0  0  0  0
   -4.1950    0.0500    1.3387 C   0  0  0  0  0  0  0  0  0  0  0  0
   -5.3740   -0.6284    0.9872 C   0  0  0  0  0  0  0  0  0  0  0  0
   -5.6521   -0.9230   -0.3347 C   0  0  0  0  0  0  0  0  0  0  0  0
   -7.1215   -1.7719   -0.8034 Cl  0  0  0  0  0  0  0  0  0  0  0  0
   -4.7415   -0.5327   -1.2946 C   0  0  0  0  0  0  0  0  0  0  0  0
   -3.5685    0.1448   -0.9217 C   0  0  0  0  0  0  0  0  0  0  0  0
   -1.8124    1.4439    2.0862 C   0  0  0  0  0  0  0  0  0  0  0  0
   -2.7657    1.0227    3.0829 N   0  0  0  0  0  0  0  0  0  0  0  0
   -0.7553    2.0786    2.4256 N   0  0  0  0  0  0  0  0  0  0  0  0
  1  2  1  0
  2  3  2  0
  3  4  1  0
  4  5  1  1
  5  6  2  0
  6  7  1  0
  7  8  2  0
  8  9  1  0
  9 10  1  0
 10 11  1  0
 11 12  2  0
 12 13  1  0
 13 14  2  0
 14 15  1  0
 14 16  1  0
 16 17  2  0
  9 18  2  0
  4 19  1  0
 19 20  1  0
 20 21  2  0
 21 22  1  0
 22 23  2  0
 23 24  1  0
 23 25  1  0
 25 26  2  0
 19 27  1  0
 27 28  1  0
 27 29  2  0
 29  2  1  0
 18  5  1  0
 26 20  1  0
 17 11  1  0
M  END
>  <zinc_id>  (915) 
ZINC000013559320

>  <ortholog_name>  (915) 
DRTS_PLAFK

>  <gene_name>  (915) 
DRTS_PLAFK

>  <affinity>  (915) 
5.48

>  <chembldocid>  (915) 
17662

>  <title>  (915) 
None

>  <reference.pubmed_id>  (915) 
14736247

>  <reference.doi>  (915) 
None

>  <reference.chembl_id>  (915) 
CHEMBL1138835

>  <reference.journal>  (915) 
J. Med. Chem.

>  <reference.year>  (915) 
2004

$$$$

     RDKit          3D

 29 32  0  0  0  0  0  0  0  0999 V2000
    1.3160    3.1873    1.8075 N   0  0  0  0  0  0  0  0  0  0  0  0
    0.1465    2.4678    1.4167 C   0  0  0  0  0  0  0  0  0  0  0  0
   -0.0515    2.2179    0.2500 N   0  0  0  0  0  0  0  0  0  0  0  0
   -1.2046    1.4737   -0.4224 C   0  0  1  0  0  0  0  0  0  0  0  0
   -0.5074    0.0512   -0.6647 C   0  0  0  0  0  0  0  0  0  0  0  0
   -1.0345   -1.1117   -0.3825 C   0  0  0  0  0  0  0  0  0  0  0  0
   -0.3443   -2.2583   -0.6450 C   0  0  0  0  0  0  0  0  0  0  0  0
    0.9063   -2.1724   -1.2073 C   0  0  0  0  0  0  0  0  0  0  0  0
    1.4755   -0.9568   -1.5104 C   0  0  0  0  0  0  0  0  0  0  0  0
    2.7146   -0.8693   -2.0676 O   0  0  0  0  0  0  0  0  0  0  0  0
    3.8617   -0.7791   -1.2969 C   0  0  0  0  0  0  0  0  0  0  0  0
    5.1232   -0.6897   -1.8268 C   0  0  0  0  0  0  0  0  0  0  0  0
    6.2075   -0.6037   -0.9844 C   0  0  0  0  0  0  0  0  0  0  0  0
    6.0723   -0.6041    0.3901 C   0  0  0  0  0  0  0  0  0  0  0  0
    7.4568   -0.4944    1.4499 Cl  0  0  0  0  0  0  0  0  0  0  0  0
    4.8068   -0.6937    0.9356 C   0  0  0  0  0  0  0  0  0  0  0  0
    3.7337   -0.7790    0.0742 C   0  0  0  0  0  0  0  0  0  0  0  0
    0.7208    0.1723   -1.2184 C   0  0  0  0  0  0  0  0  0  0  0  0
   -2.1072    1.1283    0.7959 N   0  0  0  0  0  0  0  0  0  0  0  0
   -3.3061    0.4298    0.3898 C   0  0  0  0  0  0  0  0  0  0  0  0
   -4.1950    0.0500    1.3387 C   0  0  0  0  0  0  0  0  0  0  0  0
   -5.3740   -0.6284    0.9872 C   0  0  0  0  0  0  0  0  0  0  0  0
   -5.6521   -0.9230   -0.3347 C   0  0  0  0  0  0  0  0  0  0  0  0
   -7.1215   -1.7719   -0.8034 Cl  0  0  0  0  0  0  0  0  0  0  0  0
   -4.7415   -0.5327   -1.2946 C   0  0  0  0  0  0  0  0  0  0  0  0
   -3.5685    0.1448   -0.9217 C   0  0  0  0  0  0  0  0  0  0  0  0
   -1.8124    1.4439    2.0862 C   0  0  0  0  0  0  0  0  0  0  0  0
   -2.7657    1.0227    3.0829 N   0  0  0  0  0  0  0  0  0  0  0  0
   -0.7553    2.0786    2.4256 N   0  0  0  0  0  0  0  0  0  0  0  0
  1  2  1  0
  2  3  2  0
  3  4  1  0
  4  5  1  1
  5  6  2  0
  6  7  1  0
  7  8  2  0
  8  9  1  0
  9 10  1  0
 10 11  1  0
 11 12  2  0
 12 13  1  0
 13 14  2  0
 14 15  1  0
 14 16  1  0
 16 17  2  0
  9 18  2  0
  4 19  1  0
 19 20  1  0
 20 21  2  0
 21 22  1  0
 22 23  2  0
 23 24  1  0
 23 25  1  0
 25 26  2  0
 19 27  1  0
 27 28  1  0
 27 29  2  0
 29  2  1  0
 18  5  1  0
 26 20  1  0
 17 11  1  0
M  END
>  <zinc_id>  (916) 
ZINC000013559320

>  <ortholog_name>  (916) 
DRTS_PLAFK

>  <gene_name>  (916) 
DRTS_PLAFK

>  <affinity>  (916) 
5.42

>  <chembldocid>  (916) 
17662

>  <title>  (916) 
None

>  <reference.pubmed_id>  (916) 
14736247

>  <reference.doi>  (916) 
None

>  <reference.chembl_id>  (916) 
CHEMBL1138835

>  <reference.journal>  (916) 
J. Med. Chem.

>  <reference.year>  (916) 
2004

$$$$

     RDKit          3D

 29 32  0  0  0  0  0  0  0  0999 V2000
    1.3160    3.1873    1.8075 N   0  0  0  0  0  0  0  0  0  0  0  0
    0.1465    2.4678    1.4167 C   0  0  0  0  0  0  0  0  0  0  0  0
   -0.0515    2.2179    0.2500 N   0  0  0  0  0  0  0  0  0  0  0  0
   -1.2046    1.4737   -0.4224 C   0  0  1  0  0  0  0  0  0  0  0  0
   -0.5074    0.0512   -0.6647 C   0  0  0  0  0  0  0  0  0  0  0  0
   -1.0345   -1.1117   -0.3825 C   0  0  0  0  0  0  0  0  0  0  0  0
   -0.3443   -2.2583   -0.6450 C   0  0  0  0  0  0  0  0  0  0  0  0
    0.9063   -2.1724   -1.2073 C   0  0  0  0  0  0  0  0  0  0  0  0
    1.4755   -0.9568   -1.5104 C   0  0  0  0  0  0  0  0  0  0  0  0
    2.7146   -0.8693   -2.0676 O   0  0  0  0  0  0  0  0  0  0  0  0
    3.8617   -0.7791   -1.2969 C   0  0  0  0  0  0  0  0  0  0  0  0
    5.1232   -0.6897   -1.8268 C   0  0  0  0  0  0  0  0  0  0  0  0
    6.2075   -0.6037   -0.9844 C   0  0  0  0  0  0  0  0  0  0  0  0
    6.0723   -0.6041    0.3901 C   0  0  0  0  0  0  0  0  0  0  0  0
    7.4568   -0.4944    1.4499 Cl  0  0  0  0  0  0  0  0  0  0  0  0
    4.8068   -0.6937    0.9356 C   0  0  0  0  0  0  0  0  0  0  0  0
    3.7337   -0.7790    0.0742 C   0  0  0  0  0  0  0  0  0  0  0  0
    0.7208    0.1723   -1.2184 C   0  0  0  0  0  0  0  0  0  0  0  0
   -2.1072    1.1283    0.7959 N   0  0  0  0  0  0  0  0  0  0  0  0
   -3.3061    0.4298    0.3898 C   0  0  0  0  0  0  0  0  0  0  0  0
   -4.1950    0.0500    1.3387 C   0  0  0  0  0  0  0  0  0  0  0  0
   -5.3740   -0.6284    0.9872 C   0  0  0  0  0  0  0  0  0  0  0  0
   -5.6521   -0.9230   -0.3347 C   0  0  0  0  0  0  0  0  0  0  0  0
   -7.1215   -1.7719   -0.8034 Cl  0  0  0  0  0  0  0  0  0  0  0  0
   -4.7415   -0.5327   -1.2946 C   0  0  0  0  0  0  0  0  0  0  0  0
   -3.5685    0.1448   -0.9217 C   0  0  0  0  0  0  0  0  0  0  0  0
   -1.8124    1.4439    2.0862 C   0  0  0  0  0  0  0  0  0  0  0  0
   -2.7657    1.0227    3.0829 N   0  0  0  0  0  0  0  0  0  0  0  0
   -0.7553    2.0786    2.4256 N   0  0  0  0  0  0  0  0  0  0  0  0
  1  2  1  0
  2  3  2  0
  3  4  1  0
  4  5  1  1
  5  6  2  0
  6  7  1  0
  7  8  2  0
  8  9  1  0
  9 10  1  0
 10 11  1  0
 11 12  2  0
 12 13  1  0
 13 14  2  0
 14 15  1  0
 14 16  1  0
 16 17  2  0
  9 18  2  0
  4 19  1  0
 19 20  1  0
 20 21  2  0
 21 22  1  0
 22 23  2  0
 23 24  1  0
 23 25  1  0
 25 26  2  0
 19 27  1  0
 27 28  1  0
 27 29  2  0
 29  2  1  0
 18  5  1  0
 26 20  1  0
 17 11  1  0
M  END
>  <zinc_id>  (917) 
ZINC000013559320

>  <ortholog_name>  (917) 
DRTS_PLAFK

>  <gene_name>  (917) 
DRTS_PLAFK

>  <affinity>  (917) 
5.40

>  <chembldocid>  (917) 
17662

>  <title>  (917) 
None

>  <reference.pubmed_id>  (917) 
14736247

>  <reference.doi>  (917) 
None

>  <reference.chembl_id>  (917) 
CHEMBL1138835

>  <reference.journal>  (917) 
J. Med. Chem.

>  <reference.year>  (917) 
2004

$$$$

     RDKit          3D

 29 32  0  0  0  0  0  0  0  0999 V2000
    1.3160    3.1873    1.8075 N   0  0  0  0  0  0  0  0  0  0  0  0
    0.1465    2.4678    1.4167 C   0  0  0  0  0  0  0  0  0  0  0  0
   -0.0515    2.2179    0.2500 N   0  0  0  0  0  0  0  0  0  0  0  0
   -1.2046    1.4737   -0.4224 C   0  0  1  0  0  0  0  0  0  0  0  0
   -0.5074    0.0512   -0.6647 C   0  0  0  0  0  0  0  0  0  0  0  0
   -1.0345   -1.1117   -0.3825 C   0  0  0  0  0  0  0  0  0  0  0  0
   -0.3443   -2.2583   -0.6450 C   0  0  0  0  0  0  0  0  0  0  0  0
    0.9063   -2.1724   -1.2073 C   0  0  0  0  0  0  0  0  0  0  0  0
    1.4755   -0.9568   -1.5104 C   0  0  0  0  0  0  0  0  0  0  0  0
    2.7146   -0.8693   -2.0676 O   0  0  0  0  0  0  0  0  0  0  0  0
    3.8617   -0.7791   -1.2969 C   0  0  0  0  0  0  0  0  0  0  0  0
    5.1232   -0.6897   -1.8268 C   0  0  0  0  0  0  0  0  0  0  0  0
    6.2075   -0.6037   -0.9844 C   0  0  0  0  0  0  0  0  0  0  0  0
    6.0723   -0.6041    0.3901 C   0  0  0  0  0  0  0  0  0  0  0  0
    7.4568   -0.4944    1.4499 Cl  0  0  0  0  0  0  0  0  0  0  0  0
    4.8068   -0.6937    0.9356 C   0  0  0  0  0  0  0  0  0  0  0  0
    3.7337   -0.7790    0.0742 C   0  0  0  0  0  0  0  0  0  0  0  0
    0.7208    0.1723   -1.2184 C   0  0  0  0  0  0  0  0  0  0  0  0
   -2.1072    1.1283    0.7959 N   0  0  0  0  0  0  0  0  0  0  0  0
   -3.3061    0.4298    0.3898 C   0  0  0  0  0  0  0  0  0  0  0  0
   -4.1950    0.0500    1.3387 C   0  0  0  0  0  0  0  0  0  0  0  0
   -5.3740   -0.6284    0.9872 C   0  0  0  0  0  0  0  0  0  0  0  0
   -5.6521   -0.9230   -0.3347 C   0  0  0  0  0  0  0  0  0  0  0  0
   -7.1215   -1.7719   -0.8034 Cl  0  0  0  0  0  0  0  0  0  0  0  0
   -4.7415   -0.5327   -1.2946 C   0  0  0  0  0  0  0  0  0  0  0  0
   -3.5685    0.1448   -0.9217 C   0  0  0  0  0  0  0  0  0  0  0  0
   -1.8124    1.4439    2.0862 C   0  0  0  0  0  0  0  0  0  0  0  0
   -2.7657    1.0227    3.0829 N   0  0  0  0  0  0  0  0  0  0  0  0
   -0.7553    2.0786    2.4256 N   0  0  0  0  0  0  0  0  0  0  0  0
  1  2  1  0
  2  3  2  0
  3  4  1  0
  4  5  1  1
  5  6  2  0
  6  7  1  0
  7  8  2  0
  8  9  1  0
  9 10  1  0
 10 11  1  0
 11 12  2  0
 12 13  1  0
 13 14  2  0
 14 15  1  0
 14 16  1  0
 16 17  2  0
  9 18  2  0
  4 19  1  0
 19 20  1  0
 20 21  2  0
 21 22  1  0
 22 23  2  0
 23 24  1  0
 23 25  1  0
 25 26  2  0
 19 27  1  0
 27 28  1  0
 27 29  2  0
 29  2  1  0
 18  5  1  0
 26 20  1  0
 17 11  1  0
M  END
>  <zinc_id>  (918) 
ZINC000013559320

>  <ortholog_name>  (918) 
DRTS_PLAFK

>  <gene_name>  (918) 
DRTS_PLAFK

>  <affinity>  (918) 
6.38

>  <chembldocid>  (918) 
17662

>  <title>  (918) 
None

>  <reference.pubmed_id>  (918) 
14736247

>  <reference.doi>  (918) 
None

>  <reference.chembl_id>  (918) 
CHEMBL1138835

>  <reference.journal>  (918) 
J. Med. Chem.

>  <reference.year>  (918) 
2004

$$$$

     RDKit          3D

 29 32  0  0  0  0  0  0  0  0999 V2000
    1.3160    3.1873    1.8075 N   0  0  0  0  0  0  0  0  0  0  0  0
    0.1465    2.4678    1.4167 C   0  0  0  0  0  0  0  0  0  0  0  0
   -0.0515    2.2179    0.2500 N   0  0  0  0  0  0  0  0  0  0  0  0
   -1.2046    1.4737   -0.4224 C   0  0  1  0  0  0  0  0  0  0  0  0
   -0.5074    0.0512   -0.6647 C   0  0  0  0  0  0  0  0  0  0  0  0
   -1.0345   -1.1117   -0.3825 C   0  0  0  0  0  0  0  0  0  0  0  0
   -0.3443   -2.2583   -0.6450 C   0  0  0  0  0  0  0  0  0  0  0  0
    0.9063   -2.1724   -1.2073 C   0  0  0  0  0  0  0  0  0  0  0  0
    1.4755   -0.9568   -1.5104 C   0  0  0  0  0  0  0  0  0  0  0  0
    2.7146   -0.8693   -2.0676 O   0  0  0  0  0  0  0  0  0  0  0  0
    3.8617   -0.7791   -1.2969 C   0  0  0  0  0  0  0  0  0  0  0  0
    5.1232   -0.6897   -1.8268 C   0  0  0  0  0  0  0  0  0  0  0  0
    6.2075   -0.6037   -0.9844 C   0  0  0  0  0  0  0  0  0  0  0  0
    6.0723   -0.6041    0.3901 C   0  0  0  0  0  0  0  0  0  0  0  0
    7.4568   -0.4944    1.4499 Cl  0  0  0  0  0  0  0  0  0  0  0  0
    4.8068   -0.6937    0.9356 C   0  0  0  0  0  0  0  0  0  0  0  0
    3.7337   -0.7790    0.0742 C   0  0  0  0  0  0  0  0  0  0  0  0
    0.7208    0.1723   -1.2184 C   0  0  0  0  0  0  0  0  0  0  0  0
   -2.1072    1.1283    0.7959 N   0  0  0  0  0  0  0  0  0  0  0  0
   -3.3061    0.4298    0.3898 C   0  0  0  0  0  0  0  0  0  0  0  0
   -4.1950    0.0500    1.3387 C   0  0  0  0  0  0  0  0  0  0  0  0
   -5.3740   -0.6284    0.9872 C   0  0  0  0  0  0  0  0  0  0  0  0
   -5.6521   -0.9230   -0.3347 C   0  0  0  0  0  0  0  0  0  0  0  0
   -7.1215   -1.7719   -0.8034 Cl  0  0  0  0  0  0  0  0  0  0  0  0
   -4.7415   -0.5327   -1.2946 C   0  0  0  0  0  0  0  0  0  0  0  0
   -3.5685    0.1448   -0.9217 C   0  0  0  0  0  0  0  0  0  0  0  0
   -1.8124    1.4439    2.0862 C   0  0  0  0  0  0  0  0  0  0  0  0
   -2.7657    1.0227    3.0829 N   0  0  0  0  0  0  0  0  0  0  0  0
   -0.7553    2.0786    2.4256 N   0  0  0  0  0  0  0  0  0  0  0  0
  1  2  1  0
  2  3  2  0
  3  4  1  0
  4  5  1  1
  5  6  2  0
  6  7  1  0
  7  8  2  0
  8  9  1  0
  9 10  1  0
 10 11  1  0
 11 12  2  0
 12 13  1  0
 13 14  2  0
 14 15  1  0
 14 16  1  0
 16 17  2  0
  9 18  2  0
  4 19  1  0
 19 20  1  0
 20 21  2  0
 21 22  1  0
 22 23  2  0
 23 24  1  0
 23 25  1  0
 25 26  2  0
 19 27  1  0
 27 28  1  0
 27 29  2  0
 29  2  1  0
 18  5  1  0
 26 20  1  0
 17 11  1  0
M  END
>  <zinc_id>  (919) 
ZINC000013559320

>  <ortholog_name>  (919) 
DRTS_PLAFK

>  <gene_name>  (919) 
DRTS_PLAFK

>  <affinity>  (919) 
8.12

>  <chembldocid>  (919) 
17662

>  <title>  (919) 
None

>  <reference.pubmed_id>  (919) 
14736247

>  <reference.doi>  (919) 
None

>  <reference.chembl_id>  (919) 
CHEMBL1138835

>  <reference.journal>  (919) 
J. Med. Chem.

>  <reference.year>  (919) 
2004

$$$$

     RDKit          3D

 29 32  0  0  0  0  0  0  0  0999 V2000
    1.3160    3.1873    1.8075 N   0  0  0  0  0  0  0  0  0  0  0  0
    0.1465    2.4678    1.4167 C   0  0  0  0  0  0  0  0  0  0  0  0
   -0.0515    2.2179    0.2500 N   0  0  0  0  0  0  0  0  0  0  0  0
   -1.2046    1.4737   -0.4224 C   0  0  1  0  0  0  0  0  0  0  0  0
   -0.5074    0.0512   -0.6647 C   0  0  0  0  0  0  0  0  0  0  0  0
   -1.0345   -1.1117   -0.3825 C   0  0  0  0  0  0  0  0  0  0  0  0
   -0.3443   -2.2583   -0.6450 C   0  0  0  0  0  0  0  0  0  0  0  0
    0.9063   -2.1724   -1.2073 C   0  0  0  0  0  0  0  0  0  0  0  0
    1.4755   -0.9568   -1.5104 C   0  0  0  0  0  0  0  0  0  0  0  0
    2.7146   -0.8693   -2.0676 O   0  0  0  0  0  0  0  0  0  0  0  0
    3.8617   -0.7791   -1.2969 C   0  0  0  0  0  0  0  0  0  0  0  0
    5.1232   -0.6897   -1.8268 C   0  0  0  0  0  0  0  0  0  0  0  0
    6.2075   -0.6037   -0.9844 C   0  0  0  0  0  0  0  0  0  0  0  0
    6.0723   -0.6041    0.3901 C   0  0  0  0  0  0  0  0  0  0  0  0
    7.4568   -0.4944    1.4499 Cl  0  0  0  0  0  0  0  0  0  0  0  0
    4.8068   -0.6937    0.9356 C   0  0  0  0  0  0  0  0  0  0  0  0
    3.7337   -0.7790    0.0742 C   0  0  0  0  0  0  0  0  0  0  0  0
    0.7208    0.1723   -1.2184 C   0  0  0  0  0  0  0  0  0  0  0  0
   -2.1072    1.1283    0.7959 N   0  0  0  0  0  0  0  0  0  0  0  0
   -3.3061    0.4298    0.3898 C   0  0  0  0  0  0  0  0  0  0  0  0
   -4.1950    0.0500    1.3387 C   0  0  0  0  0  0  0  0  0  0  0  0
   -5.3740   -0.6284    0.9872 C   0  0  0  0  0  0  0  0  0  0  0  0
   -5.6521   -0.9230   -0.3347 C   0  0  0  0  0  0  0  0  0  0  0  0
   -7.1215   -1.7719   -0.8034 Cl  0  0  0  0  0  0  0  0  0  0  0  0
   -4.7415   -0.5327   -1.2946 C   0  0  0  0  0  0  0  0  0  0  0  0
   -3.5685    0.1448   -0.9217 C   0  0  0  0  0  0  0  0  0  0  0  0
   -1.8124    1.4439    2.0862 C   0  0  0  0  0  0  0  0  0  0  0  0
   -2.7657    1.0227    3.0829 N   0  0  0  0  0  0  0  0  0  0  0  0
   -0.7553    2.0786    2.4256 N   0  0  0  0  0  0  0  0  0  0  0  0
  1  2  1  0
  2  3  2  0
  3  4  1  0
  4  5  1  1
  5  6  2  0
  6  7  1  0
  7  8  2  0
  8  9  1  0
  9 10  1  0
 10 11  1  0
 11 12  2  0
 12 13  1  0
 13 14  2  0
 14 15  1  0
 14 16  1  0
 16 17  2  0
  9 18  2  0
  4 19  1  0
 19 20  1  0
 20 21  2  0
 21 22  1  0
 22 23  2  0
 23 24  1  0
 23 25  1  0
 25 26  2  0
 19 27  1  0
 27 28  1  0
 27 29  2  0
 29  2  1  0
 18  5  1  0
 26 20  1  0
 17 11  1  0
M  END
>  <zinc_id>  (920) 
ZINC000013559320

>  <ortholog_name>  (920) 
DRTS_PLAFK

>  <gene_name>  (920) 
DRTS_PLAFK

>  <affinity>  (920) 
7.07

>  <chembldocid>  (920) 
17662

>  <title>  (920) 
None

>  <reference.pubmed_id>  (920) 
14736247

>  <reference.doi>  (920) 
None

>  <reference.chembl_id>  (920) 
CHEMBL1138835

>  <reference.journal>  (920) 
J. Med. Chem.

>  <reference.year>  (920) 
2004

$$$$

     RDKit          3D

 29 32  0  0  0  0  0  0  0  0999 V2000
   -2.3114   -4.1954   -3.0460 N   0  0  0  0  0  0  0  0  0  0  0  0
   -2.3378   -3.0027   -2.2113 C   0  0  0  0  0  0  0  0  0  0  0  0
   -1.3273   -2.3309   -2.2109 N   0  0  0  0  0  0  0  0  0  0  0  0
   -1.0069   -1.0294   -1.4601 C   0  0  2  0  0  0  0  0  0  0  0  0
   -0.0885   -1.5543   -0.2788 C   0  0  0  0  0  0  0  0  0  0  0  0
   -0.3712   -2.6359    0.4497 C   0  0  0  0  0  0  0  0  0  0  0  0
    0.4627   -3.0406    1.4592 C   0  0  0  0  0  0  0  0  0  0  0  0
    1.5934   -2.3225    1.7150 C   0  0  0  0  0  0  0  0  0  0  0  0
    1.9247   -1.2021    0.9905 C   0  0  0  0  0  0  0  0  0  0  0  0
    3.0701   -0.5206    1.2900 O   0  0  0  0  0  0  0  0  0  0  0  0
    3.5100    0.6158    0.6365 C   0  0  0  0  0  0  0  0  0  0  0  0
    3.1007    1.8308    1.1153 C   0  0  0  0  0  0  0  0  0  0  0  0
    3.4817    3.0326    0.5368 C   0  0  0  0  0  0  0  0  0  0  0  0
    4.3024    2.9799   -0.5591 C   0  0  0  0  0  0  0  0  0  0  0  0
    4.7727    4.5168   -1.2761 Cl  0  0  0  0  0  0  0  0  0  0  0  0
    4.7534    1.7744   -1.0943 C   0  0  0  0  0  0  0  0  0  0  0  0
    4.3314    0.6079   -0.4629 C   0  0  0  0  0  0  0  0  0  0  0  0
    1.0290   -0.8290   -0.0396 C   0  0  0  0  0  0  0  0  0  0  0  0
   -2.3300   -0.7963   -0.6932 N   0  0  0  0  0  0  0  0  0  0  0  0
   -2.2553    0.3923    0.0925 C   0  0  0  0  0  0  0  0  0  0  0  0
   -1.8030    0.3466    1.3839 C   0  0  0  0  0  0  0  0  0  0  0  0
   -1.7309    1.4956    2.1431 C   0  0  0  0  0  0  0  0  0  0  0  0
   -2.1048    2.7225    1.6452 C   0  0  0  0  0  0  0  0  0  0  0  0
   -2.0049    4.1896    2.6376 Cl  0  0  0  0  0  0  0  0  0  0  0  0
   -2.5629    2.7901    0.3474 C   0  0  0  0  0  0  0  0  0  0  0  0
   -2.6263    1.6300   -0.3919 C   0  0  0  0  0  0  0  0  0  0  0  0
   -3.4238   -1.6054   -0.7501 C   0  0  0  0  0  0  0  0  0  0  0  0
   -4.5517   -1.1786    0.0610 N   0  0  0  0  0  0  0  0  0  0  0  0
   -3.4955   -2.6811   -1.4592 N   0  0  0  0  0  0  0  0  0  0  0  0
  1  2  1  0
  2  3  2  0
  3  4  1  0
  4  5  1  1
  5  6  2  0
  6  7  1  0
  7  8  2  0
  8  9  1  0
  9 10  1  0
 10 11  1  0
 11 12  2  0
 12 13  1  0
 13 14  2  0
 14 15  1  0
 14 16  1  0
 16 17  2  0
  9 18  2  0
  4 19  1  0
 19 20  1  0
 20 21  2  0
 21 22  1  0
 22 23  2  0
 23 24  1  0
 23 25  1  0
 25 26  2  0
 19 27  1  0
 27 28  1  0
 27 29  2  0
 29  2  1  0
 18  5  1  0
 26 20  1  0
 17 11  1  0
M  END
>  <zinc_id>  (921) 
ZINC000013559321

>  <ortholog_name>  (921) 
DRTS_PLAFK

>  <gene_name>  (921) 
DRTS_PLAFK

>  <affinity>  (921) 
8.85

>  <chembldocid>  (921) 
17662

>  <title>  (921) 
None

>  <reference.pubmed_id>  (921) 
14736247

>  <reference.doi>  (921) 
None

>  <reference.chembl_id>  (921) 
CHEMBL1138835

>  <reference.journal>  (921) 
J. Med. Chem.

>  <reference.year>  (921) 
2004

$$$$

     RDKit          3D

 29 32  0  0  0  0  0  0  0  0999 V2000
   -2.3114   -4.1954   -3.0460 N   0  0  0  0  0  0  0  0  0  0  0  0
   -2.3378   -3.0027   -2.2113 C   0  0  0  0  0  0  0  0  0  0  0  0
   -1.3273   -2.3309   -2.2109 N   0  0  0  0  0  0  0  0  0  0  0  0
   -1.0069   -1.0294   -1.4601 C   0  0  2  0  0  0  0  0  0  0  0  0
   -0.0885   -1.5543   -0.2788 C   0  0  0  0  0  0  0  0  0  0  0  0
   -0.3712   -2.6359    0.4497 C   0  0  0  0  0  0  0  0  0  0  0  0
    0.4627   -3.0406    1.4592 C   0  0  0  0  0  0  0  0  0  0  0  0
    1.5934   -2.3225    1.7150 C   0  0  0  0  0  0  0  0  0  0  0  0
    1.9247   -1.2021    0.9905 C   0  0  0  0  0  0  0  0  0  0  0  0
    3.0701   -0.5206    1.2900 O   0  0  0  0  0  0  0  0  0  0  0  0
    3.5100    0.6158    0.6365 C   0  0  0  0  0  0  0  0  0  0  0  0
    3.1007    1.8308    1.1153 C   0  0  0  0  0  0  0  0  0  0  0  0
    3.4817    3.0326    0.5368 C   0  0  0  0  0  0  0  0  0  0  0  0
    4.3024    2.9799   -0.5591 C   0  0  0  0  0  0  0  0  0  0  0  0
    4.7727    4.5168   -1.2761 Cl  0  0  0  0  0  0  0  0  0  0  0  0
    4.7534    1.7744   -1.0943 C   0  0  0  0  0  0  0  0  0  0  0  0
    4.3314    0.6079   -0.4629 C   0  0  0  0  0  0  0  0  0  0  0  0
    1.0290   -0.8290   -0.0396 C   0  0  0  0  0  0  0  0  0  0  0  0
   -2.3300   -0.7963   -0.6932 N   0  0  0  0  0  0  0  0  0  0  0  0
   -2.2553    0.3923    0.0925 C   0  0  0  0  0  0  0  0  0  0  0  0
   -1.8030    0.3466    1.3839 C   0  0  0  0  0  0  0  0  0  0  0  0
   -1.7309    1.4956    2.1431 C   0  0  0  0  0  0  0  0  0  0  0  0
   -2.1048    2.7225    1.6452 C   0  0  0  0  0  0  0  0  0  0  0  0
   -2.0049    4.1896    2.6376 Cl  0  0  0  0  0  0  0  0  0  0  0  0
   -2.5629    2.7901    0.3474 C   0  0  0  0  0  0  0  0  0  0  0  0
   -2.6263    1.6300   -0.3919 C   0  0  0  0  0  0  0  0  0  0  0  0
   -3.4238   -1.6054   -0.7501 C   0  0  0  0  0  0  0  0  0  0  0  0
   -4.5517   -1.1786    0.0610 N   0  0  0  0  0  0  0  0  0  0  0  0
   -3.4955   -2.6811   -1.4592 N   0  0  0  0  0  0  0  0  0  0  0  0
  1  2  1  0
  2  3  2  0
  3  4  1  0
  4  5  1  1
  5  6  2  0
  6  7  1  0
  7  8  2  0
  8  9  1  0
  9 10  1  0
 10 11  1  0
 11 12  2  0
 12 13  1  0
 13 14  2  0
 14 15  1  0
 14 16  1  0
 16 17  2  0
  9 18  2  0
  4 19  1  0
 19 20  1  0
 20 21  2  0
 21 22  1  0
 22 23  2  0
 23 24  1  0
 23 25  1  0
 25 26  2  0
 19 27  1  0
 27 28  1  0
 27 29  2  0
 29  2  1  0
 18  5  1  0
 26 20  1  0
 17 11  1  0
M  END
>  <zinc_id>  (922) 
ZINC000013559321

>  <ortholog_name>  (922) 
DRTS_PLAFK

>  <gene_name>  (922) 
DRTS_PLAFK

>  <affinity>  (922) 
6.92

>  <chembldocid>  (922) 
17662

>  <title>  (922) 
None

>  <reference.pubmed_id>  (922) 
14736247

>  <reference.doi>  (922) 
None

>  <reference.chembl_id>  (922) 
CHEMBL1138835

>  <reference.journal>  (922) 
J. Med. Chem.

>  <reference.year>  (922) 
2004

$$$$

     RDKit          3D

 29 32  0  0  0  0  0  0  0  0999 V2000
   -2.3114   -4.1954   -3.0460 N   0  0  0  0  0  0  0  0  0  0  0  0
   -2.3378   -3.0027   -2.2113 C   0  0  0  0  0  0  0  0  0  0  0  0
   -1.3273   -2.3309   -2.2109 N   0  0  0  0  0  0  0  0  0  0  0  0
   -1.0069   -1.0294   -1.4601 C   0  0  2  0  0  0  0  0  0  0  0  0
   -0.0885   -1.5543   -0.2788 C   0  0  0  0  0  0  0  0  0  0  0  0
   -0.3712   -2.6359    0.4497 C   0  0  0  0  0  0  0  0  0  0  0  0
    0.4627   -3.0406    1.4592 C   0  0  0  0  0  0  0  0  0  0  0  0
    1.5934   -2.3225    1.7150 C   0  0  0  0  0  0  0  0  0  0  0  0
    1.9247   -1.2021    0.9905 C   0  0  0  0  0  0  0  0  0  0  0  0
    3.0701   -0.5206    1.2900 O   0  0  0  0  0  0  0  0  0  0  0  0
    3.5100    0.6158    0.6365 C   0  0  0  0  0  0  0  0  0  0  0  0
    3.1007    1.8308    1.1153 C   0  0  0  0  0  0  0  0  0  0  0  0
    3.4817    3.0326    0.5368 C   0  0  0  0  0  0  0  0  0  0  0  0
    4.3024    2.9799   -0.5591 C   0  0  0  0  0  0  0  0  0  0  0  0
    4.7727    4.5168   -1.2761 Cl  0  0  0  0  0  0  0  0  0  0  0  0
    4.7534    1.7744   -1.0943 C   0  0  0  0  0  0  0  0  0  0  0  0
    4.3314    0.6079   -0.4629 C   0  0  0  0  0  0  0  0  0  0  0  0
    1.0290   -0.8290   -0.0396 C   0  0  0  0  0  0  0  0  0  0  0  0
   -2.3300   -0.7963   -0.6932 N   0  0  0  0  0  0  0  0  0  0  0  0
   -2.2553    0.3923    0.0925 C   0  0  0  0  0  0  0  0  0  0  0  0
   -1.8030    0.3466    1.3839 C   0  0  0  0  0  0  0  0  0  0  0  0
   -1.7309    1.4956    2.1431 C   0  0  0  0  0  0  0  0  0  0  0  0
   -2.1048    2.7225    1.6452 C   0  0  0  0  0  0  0  0  0  0  0  0
   -2.0049    4.1896    2.6376 Cl  0  0  0  0  0  0  0  0  0  0  0  0
   -2.5629    2.7901    0.3474 C   0  0  0  0  0  0  0  0  0  0  0  0
   -2.6263    1.6300   -0.3919 C   0  0  0  0  0  0  0  0  0  0  0  0
   -3.4238   -1.6054   -0.7501 C   0  0  0  0  0  0  0  0  0  0  0  0
   -4.5517   -1.1786    0.0610 N   0  0  0  0  0  0  0  0  0  0  0  0
   -3.4955   -2.6811   -1.4592 N   0  0  0  0  0  0  0  0  0  0  0  0
  1  2  1  0
  2  3  2  0
  3  4  1  0
  4  5  1  1
  5  6  2  0
  6  7  1  0
  7  8  2  0
  8  9  1  0
  9 10  1  0
 10 11  1  0
 11 12  2  0
 12 13  1  0
 13 14  2  0
 14 15  1  0
 14 16  1  0
 16 17  2  0
  9 18  2  0
  4 19  1  0
 19 20  1  0
 20 21  2  0
 21 22  1  0
 22 23  2  0
 23 24  1  0
 23 25  1  0
 25 26  2  0
 19 27  1  0
 27 28  1  0
 27 29  2  0
 29  2  1  0
 18  5  1  0
 26 20  1  0
 17 11  1  0
M  END
>  <zinc_id>  (923) 
ZINC000013559321

>  <ortholog_name>  (923) 
DRTS_PLAFK

>  <gene_name>  (923) 
DRTS_PLAFK

>  <affinity>  (923) 
6.82

>  <chembldocid>  (923) 
17662

>  <title>  (923) 
None

>  <reference.pubmed_id>  (923) 
14736247

>  <reference.doi>  (923) 
None

>  <reference.chembl_id>  (923) 
CHEMBL1138835

>  <reference.journal>  (923) 
J. Med. Chem.

>  <reference.year>  (923) 
2004

$$$$

     RDKit          3D

 29 32  0  0  0  0  0  0  0  0999 V2000
   -2.3114   -4.1954   -3.0460 N   0  0  0  0  0  0  0  0  0  0  0  0
   -2.3378   -3.0027   -2.2113 C   0  0  0  0  0  0  0  0  0  0  0  0
   -1.3273   -2.3309   -2.2109 N   0  0  0  0  0  0  0  0  0  0  0  0
   -1.0069   -1.0294   -1.4601 C   0  0  2  0  0  0  0  0  0  0  0  0
   -0.0885   -1.5543   -0.2788 C   0  0  0  0  0  0  0  0  0  0  0  0
   -0.3712   -2.6359    0.4497 C   0  0  0  0  0  0  0  0  0  0  0  0
    0.4627   -3.0406    1.4592 C   0  0  0  0  0  0  0  0  0  0  0  0
    1.5934   -2.3225    1.7150 C   0  0  0  0  0  0  0  0  0  0  0  0
    1.9247   -1.2021    0.9905 C   0  0  0  0  0  0  0  0  0  0  0  0
    3.0701   -0.5206    1.2900 O   0  0  0  0  0  0  0  0  0  0  0  0
    3.5100    0.6158    0.6365 C   0  0  0  0  0  0  0  0  0  0  0  0
    3.1007    1.8308    1.1153 C   0  0  0  0  0  0  0  0  0  0  0  0
    3.4817    3.0326    0.5368 C   0  0  0  0  0  0  0  0  0  0  0  0
    4.3024    2.9799   -0.5591 C   0  0  0  0  0  0  0  0  0  0  0  0
    4.7727    4.5168   -1.2761 Cl  0  0  0  0  0  0  0  0  0  0  0  0
    4.7534    1.7744   -1.0943 C   0  0  0  0  0  0  0  0  0  0  0  0
    4.3314    0.6079   -0.4629 C   0  0  0  0  0  0  0  0  0  0  0  0
    1.0290   -0.8290   -0.0396 C   0  0  0  0  0  0  0  0  0  0  0  0
   -2.3300   -0.7963   -0.6932 N   0  0  0  0  0  0  0  0  0  0  0  0
   -2.2553    0.3923    0.0925 C   0  0  0  0  0  0  0  0  0  0  0  0
   -1.8030    0.3466    1.3839 C   0  0  0  0  0  0  0  0  0  0  0  0
   -1.7309    1.4956    2.1431 C   0  0  0  0  0  0  0  0  0  0  0  0
   -2.1048    2.7225    1.6452 C   0  0  0  0  0  0  0  0  0  0  0  0
   -2.0049    4.1896    2.6376 Cl  0  0  0  0  0  0  0  0  0  0  0  0
   -2.5629    2.7901    0.3474 C   0  0  0  0  0  0  0  0  0  0  0  0
   -2.6263    1.6300   -0.3919 C   0  0  0  0  0  0  0  0  0  0  0  0
   -3.4238   -1.6054   -0.7501 C   0  0  0  0  0  0  0  0  0  0  0  0
   -4.5517   -1.1786    0.0610 N   0  0  0  0  0  0  0  0  0  0  0  0
   -3.4955   -2.6811   -1.4592 N   0  0  0  0  0  0  0  0  0  0  0  0
  1  2  1  0
  2  3  2  0
  3  4  1  0
  4  5  1  1
  5  6  2  0
  6  7  1  0
  7  8  2  0
  8  9  1  0
  9 10  1  0
 10 11  1  0
 11 12  2  0
 12 13  1  0
 13 14  2  0
 14 15  1  0
 14 16  1  0
 16 17  2  0
  9 18  2  0
  4 19  1  0
 19 20  1  0
 20 21  2  0
 21 22  1  0
 22 23  2  0
 23 24  1  0
 23 25  1  0
 25 26  2  0
 19 27  1  0
 27 28  1  0
 27 29  2  0
 29  2  1  0
 18  5  1  0
 26 20  1  0
 17 11  1  0
M  END
>  <zinc_id>  (924) 
ZINC000013559321

>  <ortholog_name>  (924) 
DRTS_PLAFK

>  <gene_name>  (924) 
DRTS_PLAFK

>  <affinity>  (924) 
5.55

>  <chembldocid>  (924) 
17662

>  <title>  (924) 
None

>  <reference.pubmed_id>  (924) 
14736247

>  <reference.doi>  (924) 
None

>  <reference.chembl_id>  (924) 
CHEMBL1138835

>  <reference.journal>  (924) 
J. Med. Chem.

>  <reference.year>  (924) 
2004

$$$$

     RDKit          3D

 29 32  0  0  0  0  0  0  0  0999 V2000
   -2.3114   -4.1954   -3.0460 N   0  0  0  0  0  0  0  0  0  0  0  0
   -2.3378   -3.0027   -2.2113 C   0  0  0  0  0  0  0  0  0  0  0  0
   -1.3273   -2.3309   -2.2109 N   0  0  0  0  0  0  0  0  0  0  0  0
   -1.0069   -1.0294   -1.4601 C   0  0  2  0  0  0  0  0  0  0  0  0
   -0.0885   -1.5543   -0.2788 C   0  0  0  0  0  0  0  0  0  0  0  0
   -0.3712   -2.6359    0.4497 C   0  0  0  0  0  0  0  0  0  0  0  0
    0.4627   -3.0406    1.4592 C   0  0  0  0  0  0  0  0  0  0  0  0
    1.5934   -2.3225    1.7150 C   0  0  0  0  0  0  0  0  0  0  0  0
    1.9247   -1.2021    0.9905 C   0  0  0  0  0  0  0  0  0  0  0  0
    3.0701   -0.5206    1.2900 O   0  0  0  0  0  0  0  0  0  0  0  0
    3.5100    0.6158    0.6365 C   0  0  0  0  0  0  0  0  0  0  0  0
    3.1007    1.8308    1.1153 C   0  0  0  0  0  0  0  0  0  0  0  0
    3.4817    3.0326    0.5368 C   0  0  0  0  0  0  0  0  0  0  0  0
    4.3024    2.9799   -0.5591 C   0  0  0  0  0  0  0  0  0  0  0  0
    4.7727    4.5168   -1.2761 Cl  0  0  0  0  0  0  0  0  0  0  0  0
    4.7534    1.7744   -1.0943 C   0  0  0  0  0  0  0  0  0  0  0  0
    4.3314    0.6079   -0.4629 C   0  0  0  0  0  0  0  0  0  0  0  0
    1.0290   -0.8290   -0.0396 C   0  0  0  0  0  0  0  0  0  0  0  0
   -2.3300   -0.7963   -0.6932 N   0  0  0  0  0  0  0  0  0  0  0  0
   -2.2553    0.3923    0.0925 C   0  0  0  0  0  0  0  0  0  0  0  0
   -1.8030    0.3466    1.3839 C   0  0  0  0  0  0  0  0  0  0  0  0
   -1.7309    1.4956    2.1431 C   0  0  0  0  0  0  0  0  0  0  0  0
   -2.1048    2.7225    1.6452 C   0  0  0  0  0  0  0  0  0  0  0  0
   -2.0049    4.1896    2.6376 Cl  0  0  0  0  0  0  0  0  0  0  0  0
   -2.5629    2.7901    0.3474 C   0  0  0  0  0  0  0  0  0  0  0  0
   -2.6263    1.6300   -0.3919 C   0  0  0  0  0  0  0  0  0  0  0  0
   -3.4238   -1.6054   -0.7501 C   0  0  0  0  0  0  0  0  0  0  0  0
   -4.5517   -1.1786    0.0610 N   0  0  0  0  0  0  0  0  0  0  0  0
   -3.4955   -2.6811   -1.4592 N   0  0  0  0  0  0  0  0  0  0  0  0
  1  2  1  0
  2  3  2  0
  3  4  1  0
  4  5  1  1
  5  6  2  0
  6  7  1  0
  7  8  2  0
  8  9  1  0
  9 10  1  0
 10 11  1  0
 11 12  2  0
 12 13  1  0
 13 14  2  0
 14 15  1  0
 14 16  1  0
 16 17  2  0
  9 18  2  0
  4 19  1  0
 19 20  1  0
 20 21  2  0
 21 22  1  0
 22 23  2  0
 23 24  1  0
 23 25  1  0
 25 26  2  0
 19 27  1  0
 27 28  1  0
 27 29  2  0
 29  2  1  0
 18  5  1  0
 26 20  1  0
 17 11  1  0
M  END
>  <zinc_id>  (925) 
ZINC000013559321

>  <ortholog_name>  (925) 
DRTS_PLAFK

>  <gene_name>  (925) 
DRTS_PLAFK

>  <affinity>  (925) 
5.48

>  <chembldocid>  (925) 
17662

>  <title>  (925) 
None

>  <reference.pubmed_id>  (925) 
14736247

>  <reference.doi>  (925) 
None

>  <reference.chembl_id>  (925) 
CHEMBL1138835

>  <reference.journal>  (925) 
J. Med. Chem.

>  <reference.year>  (925) 
2004

$$$$

     RDKit          3D

 29 32  0  0  0  0  0  0  0  0999 V2000
   -2.3114   -4.1954   -3.0460 N   0  0  0  0  0  0  0  0  0  0  0  0
   -2.3378   -3.0027   -2.2113 C   0  0  0  0  0  0  0  0  0  0  0  0
   -1.3273   -2.3309   -2.2109 N   0  0  0  0  0  0  0  0  0  0  0  0
   -1.0069   -1.0294   -1.4601 C   0  0  2  0  0  0  0  0  0  0  0  0
   -0.0885   -1.5543   -0.2788 C   0  0  0  0  0  0  0  0  0  0  0  0
   -0.3712   -2.6359    0.4497 C   0  0  0  0  0  0  0  0  0  0  0  0
    0.4627   -3.0406    1.4592 C   0  0  0  0  0  0  0  0  0  0  0  0
    1.5934   -2.3225    1.7150 C   0  0  0  0  0  0  0  0  0  0  0  0
    1.9247   -1.2021    0.9905 C   0  0  0  0  0  0  0  0  0  0  0  0
    3.0701   -0.5206    1.2900 O   0  0  0  0  0  0  0  0  0  0  0  0
    3.5100    0.6158    0.6365 C   0  0  0  0  0  0  0  0  0  0  0  0
    3.1007    1.8308    1.1153 C   0  0  0  0  0  0  0  0  0  0  0  0
    3.4817    3.0326    0.5368 C   0  0  0  0  0  0  0  0  0  0  0  0
    4.3024    2.9799   -0.5591 C   0  0  0  0  0  0  0  0  0  0  0  0
    4.7727    4.5168   -1.2761 Cl  0  0  0  0  0  0  0  0  0  0  0  0
    4.7534    1.7744   -1.0943 C   0  0  0  0  0  0  0  0  0  0  0  0
    4.3314    0.6079   -0.4629 C   0  0  0  0  0  0  0  0  0  0  0  0
    1.0290   -0.8290   -0.0396 C   0  0  0  0  0  0  0  0  0  0  0  0
   -2.3300   -0.7963   -0.6932 N   0  0  0  0  0  0  0  0  0  0  0  0
   -2.2553    0.3923    0.0925 C   0  0  0  0  0  0  0  0  0  0  0  0
   -1.8030    0.3466    1.3839 C   0  0  0  0  0  0  0  0  0  0  0  0
   -1.7309    1.4956    2.1431 C   0  0  0  0  0  0  0  0  0  0  0  0
   -2.1048    2.7225    1.6452 C   0  0  0  0  0  0  0  0  0  0  0  0
   -2.0049    4.1896    2.6376 Cl  0  0  0  0  0  0  0  0  0  0  0  0
   -2.5629    2.7901    0.3474 C   0  0  0  0  0  0  0  0  0  0  0  0
   -2.6263    1.6300   -0.3919 C   0  0  0  0  0  0  0  0  0  0  0  0
   -3.4238   -1.6054   -0.7501 C   0  0  0  0  0  0  0  0  0  0  0  0
   -4.5517   -1.1786    0.0610 N   0  0  0  0  0  0  0  0  0  0  0  0
   -3.4955   -2.6811   -1.4592 N   0  0  0  0  0  0  0  0  0  0  0  0
  1  2  1  0
  2  3  2  0
  3  4  1  0
  4  5  1  1
  5  6  2  0
  6  7  1  0
  7  8  2  0
  8  9  1  0
  9 10  1  0
 10 11  1  0
 11 12  2  0
 12 13  1  0
 13 14  2  0
 14 15  1  0
 14 16  1  0
 16 17  2  0
  9 18  2  0
  4 19  1  0
 19 20  1  0
 20 21  2  0
 21 22  1  0
 22 23  2  0
 23 24  1  0
 23 25  1  0
 25 26  2  0
 19 27  1  0
 27 28  1  0
 27 29  2  0
 29  2  1  0
 18  5  1  0
 26 20  1  0
 17 11  1  0
M  END
>  <zinc_id>  (926) 
ZINC000013559321

>  <ortholog_name>  (926) 
DRTS_PLAFK

>  <gene_name>  (926) 
DRTS_PLAFK

>  <affinity>  (926) 
5.42

>  <chembldocid>  (926) 
17662

>  <title>  (926) 
None

>  <reference.pubmed_id>  (926) 
14736247

>  <reference.doi>  (926) 
None

>  <reference.chembl_id>  (926) 
CHEMBL1138835

>  <reference.journal>  (926) 
J. Med. Chem.

>  <reference.year>  (926) 
2004

$$$$

     RDKit          3D

 29 32  0  0  0  0  0  0  0  0999 V2000
   -2.3114   -4.1954   -3.0460 N   0  0  0  0  0  0  0  0  0  0  0  0
   -2.3378   -3.0027   -2.2113 C   0  0  0  0  0  0  0  0  0  0  0  0
   -1.3273   -2.3309   -2.2109 N   0  0  0  0  0  0  0  0  0  0  0  0
   -1.0069   -1.0294   -1.4601 C   0  0  2  0  0  0  0  0  0  0  0  0
   -0.0885   -1.5543   -0.2788 C   0  0  0  0  0  0  0  0  0  0  0  0
   -0.3712   -2.6359    0.4497 C   0  0  0  0  0  0  0  0  0  0  0  0
    0.4627   -3.0406    1.4592 C   0  0  0  0  0  0  0  0  0  0  0  0
    1.5934   -2.3225    1.7150 C   0  0  0  0  0  0  0  0  0  0  0  0
    1.9247   -1.2021    0.9905 C   0  0  0  0  0  0  0  0  0  0  0  0
    3.0701   -0.5206    1.2900 O   0  0  0  0  0  0  0  0  0  0  0  0
    3.5100    0.6158    0.6365 C   0  0  0  0  0  0  0  0  0  0  0  0
    3.1007    1.8308    1.1153 C   0  0  0  0  0  0  0  0  0  0  0  0
    3.4817    3.0326    0.5368 C   0  0  0  0  0  0  0  0  0  0  0  0
    4.3024    2.9799   -0.5591 C   0  0  0  0  0  0  0  0  0  0  0  0
    4.7727    4.5168   -1.2761 Cl  0  0  0  0  0  0  0  0  0  0  0  0
    4.7534    1.7744   -1.0943 C   0  0  0  0  0  0  0  0  0  0  0  0
    4.3314    0.6079   -0.4629 C   0  0  0  0  0  0  0  0  0  0  0  0
    1.0290   -0.8290   -0.0396 C   0  0  0  0  0  0  0  0  0  0  0  0
   -2.3300   -0.7963   -0.6932 N   0  0  0  0  0  0  0  0  0  0  0  0
   -2.2553    0.3923    0.0925 C   0  0  0  0  0  0  0  0  0  0  0  0
   -1.8030    0.3466    1.3839 C   0  0  0  0  0  0  0  0  0  0  0  0
   -1.7309    1.4956    2.1431 C   0  0  0  0  0  0  0  0  0  0  0  0
   -2.1048    2.7225    1.6452 C   0  0  0  0  0  0  0  0  0  0  0  0
   -2.0049    4.1896    2.6376 Cl  0  0  0  0  0  0  0  0  0  0  0  0
   -2.5629    2.7901    0.3474 C   0  0  0  0  0  0  0  0  0  0  0  0
   -2.6263    1.6300   -0.3919 C   0  0  0  0  0  0  0  0  0  0  0  0
   -3.4238   -1.6054   -0.7501 C   0  0  0  0  0  0  0  0  0  0  0  0
   -4.5517   -1.1786    0.0610 N   0  0  0  0  0  0  0  0  0  0  0  0
   -3.4955   -2.6811   -1.4592 N   0  0  0  0  0  0  0  0  0  0  0  0
  1  2  1  0
  2  3  2  0
  3  4  1  0
  4  5  1  1
  5  6  2  0
  6  7  1  0
  7  8  2  0
  8  9  1  0
  9 10  1  0
 10 11  1  0
 11 12  2  0
 12 13  1  0
 13 14  2  0
 14 15  1  0
 14 16  1  0
 16 17  2  0
  9 18  2  0
  4 19  1  0
 19 20  1  0
 20 21  2  0
 21 22  1  0
 22 23  2  0
 23 24  1  0
 23 25  1  0
 25 26  2  0
 19 27  1  0
 27 28  1  0
 27 29  2  0
 29  2  1  0
 18  5  1  0
 26 20  1  0
 17 11  1  0
M  END
>  <zinc_id>  (927) 
ZINC000013559321

>  <ortholog_name>  (927) 
DRTS_PLAFK

>  <gene_name>  (927) 
DRTS_PLAFK

>  <affinity>  (927) 
5.40

>  <chembldocid>  (927) 
17662

>  <title>  (927) 
None

>  <reference.pubmed_id>  (927) 
14736247

>  <reference.doi>  (927) 
None

>  <reference.chembl_id>  (927) 
CHEMBL1138835

>  <reference.journal>  (927) 
J. Med. Chem.

>  <reference.year>  (927) 
2004

$$$$

     RDKit          3D

 29 32  0  0  0  0  0  0  0  0999 V2000
   -2.3114   -4.1954   -3.0460 N   0  0  0  0  0  0  0  0  0  0  0  0
   -2.3378   -3.0027   -2.2113 C   0  0  0  0  0  0  0  0  0  0  0  0
   -1.3273   -2.3309   -2.2109 N   0  0  0  0  0  0  0  0  0  0  0  0
   -1.0069   -1.0294   -1.4601 C   0  0  2  0  0  0  0  0  0  0  0  0
   -0.0885   -1.5543   -0.2788 C   0  0  0  0  0  0  0  0  0  0  0  0
   -0.3712   -2.6359    0.4497 C   0  0  0  0  0  0  0  0  0  0  0  0
    0.4627   -3.0406    1.4592 C   0  0  0  0  0  0  0  0  0  0  0  0
    1.5934   -2.3225    1.7150 C   0  0  0  0  0  0  0  0  0  0  0  0
    1.9247   -1.2021    0.9905 C   0  0  0  0  0  0  0  0  0  0  0  0
    3.0701   -0.5206    1.2900 O   0  0  0  0  0  0  0  0  0  0  0  0
    3.5100    0.6158    0.6365 C   0  0  0  0  0  0  0  0  0  0  0  0
    3.1007    1.8308    1.1153 C   0  0  0  0  0  0  0  0  0  0  0  0
    3.4817    3.0326    0.5368 C   0  0  0  0  0  0  0  0  0  0  0  0
    4.3024    2.9799   -0.5591 C   0  0  0  0  0  0  0  0  0  0  0  0
    4.7727    4.5168   -1.2761 Cl  0  0  0  0  0  0  0  0  0  0  0  0
    4.7534    1.7744   -1.0943 C   0  0  0  0  0  0  0  0  0  0  0  0
    4.3314    0.6079   -0.4629 C   0  0  0  0  0  0  0  0  0  0  0  0
    1.0290   -0.8290   -0.0396 C   0  0  0  0  0  0  0  0  0  0  0  0
   -2.3300   -0.7963   -0.6932 N   0  0  0  0  0  0  0  0  0  0  0  0
   -2.2553    0.3923    0.0925 C   0  0  0  0  0  0  0  0  0  0  0  0
   -1.8030    0.3466    1.3839 C   0  0  0  0  0  0  0  0  0  0  0  0
   -1.7309    1.4956    2.1431 C   0  0  0  0  0  0  0  0  0  0  0  0
   -2.1048    2.7225    1.6452 C   0  0  0  0  0  0  0  0  0  0  0  0
   -2.0049    4.1896    2.6376 Cl  0  0  0  0  0  0  0  0  0  0  0  0
   -2.5629    2.7901    0.3474 C   0  0  0  0  0  0  0  0  0  0  0  0
   -2.6263    1.6300   -0.3919 C   0  0  0  0  0  0  0  0  0  0  0  0
   -3.4238   -1.6054   -0.7501 C   0  0  0  0  0  0  0  0  0  0  0  0
   -4.5517   -1.1786    0.0610 N   0  0  0  0  0  0  0  0  0  0  0  0
   -3.4955   -2.6811   -1.4592 N   0  0  0  0  0  0  0  0  0  0  0  0
  1  2  1  0
  2  3  2  0
  3  4  1  0
  4  5  1  1
  5  6  2  0
  6  7  1  0
  7  8  2  0
  8  9  1  0
  9 10  1  0
 10 11  1  0
 11 12  2  0
 12 13  1  0
 13 14  2  0
 14 15  1  0
 14 16  1  0
 16 17  2  0
  9 18  2  0
  4 19  1  0
 19 20  1  0
 20 21  2  0
 21 22  1  0
 22 23  2  0
 23 24  1  0
 23 25  1  0
 25 26  2  0
 19 27  1  0
 27 28  1  0
 27 29  2  0
 29  2  1  0
 18  5  1  0
 26 20  1  0
 17 11  1  0
M  END
>  <zinc_id>  (928) 
ZINC000013559321

>  <ortholog_name>  (928) 
DRTS_PLAFK

>  <gene_name>  (928) 
DRTS_PLAFK

>  <affinity>  (928) 
6.38

>  <chembldocid>  (928) 
17662

>  <title>  (928) 
None

>  <reference.pubmed_id>  (928) 
14736247

>  <reference.doi>  (928) 
None

>  <reference.chembl_id>  (928) 
CHEMBL1138835

>  <reference.journal>  (928) 
J. Med. Chem.

>  <reference.year>  (928) 
2004

$$$$

     RDKit          3D

 29 32  0  0  0  0  0  0  0  0999 V2000
   -2.3114   -4.1954   -3.0460 N   0  0  0  0  0  0  0  0  0  0  0  0
   -2.3378   -3.0027   -2.2113 C   0  0  0  0  0  0  0  0  0  0  0  0
   -1.3273   -2.3309   -2.2109 N   0  0  0  0  0  0  0  0  0  0  0  0
   -1.0069   -1.0294   -1.4601 C   0  0  2  0  0  0  0  0  0  0  0  0
   -0.0885   -1.5543   -0.2788 C   0  0  0  0  0  0  0  0  0  0  0  0
   -0.3712   -2.6359    0.4497 C   0  0  0  0  0  0  0  0  0  0  0  0
    0.4627   -3.0406    1.4592 C   0  0  0  0  0  0  0  0  0  0  0  0
    1.5934   -2.3225    1.7150 C   0  0  0  0  0  0  0  0  0  0  0  0
    1.9247   -1.2021    0.9905 C   0  0  0  0  0  0  0  0  0  0  0  0
    3.0701   -0.5206    1.2900 O   0  0  0  0  0  0  0  0  0  0  0  0
    3.5100    0.6158    0.6365 C   0  0  0  0  0  0  0  0  0  0  0  0
    3.1007    1.8308    1.1153 C   0  0  0  0  0  0  0  0  0  0  0  0
    3.4817    3.0326    0.5368 C   0  0  0  0  0  0  0  0  0  0  0  0
    4.3024    2.9799   -0.5591 C   0  0  0  0  0  0  0  0  0  0  0  0
    4.7727    4.5168   -1.2761 Cl  0  0  0  0  0  0  0  0  0  0  0  0
    4.7534    1.7744   -1.0943 C   0  0  0  0  0  0  0  0  0  0  0  0
    4.3314    0.6079   -0.4629 C   0  0  0  0  0  0  0  0  0  0  0  0
    1.0290   -0.8290   -0.0396 C   0  0  0  0  0  0  0  0  0  0  0  0
   -2.3300   -0.7963   -0.6932 N   0  0  0  0  0  0  0  0  0  0  0  0
   -2.2553    0.3923    0.0925 C   0  0  0  0  0  0  0  0  0  0  0  0
   -1.8030    0.3466    1.3839 C   0  0  0  0  0  0  0  0  0  0  0  0
   -1.7309    1.4956    2.1431 C   0  0  0  0  0  0  0  0  0  0  0  0
   -2.1048    2.7225    1.6452 C   0  0  0  0  0  0  0  0  0  0  0  0
   -2.0049    4.1896    2.6376 Cl  0  0  0  0  0  0  0  0  0  0  0  0
   -2.5629    2.7901    0.3474 C   0  0  0  0  0  0  0  0  0  0  0  0
   -2.6263    1.6300   -0.3919 C   0  0  0  0  0  0  0  0  0  0  0  0
   -3.4238   -1.6054   -0.7501 C   0  0  0  0  0  0  0  0  0  0  0  0
   -4.5517   -1.1786    0.0610 N   0  0  0  0  0  0  0  0  0  0  0  0
   -3.4955   -2.6811   -1.4592 N   0  0  0  0  0  0  0  0  0  0  0  0
  1  2  1  0
  2  3  2  0
  3  4  1  0
  4  5  1  1
  5  6  2  0
  6  7  1  0
  7  8  2  0
  8  9  1  0
  9 10  1  0
 10 11  1  0
 11 12  2  0
 12 13  1  0
 13 14  2  0
 14 15  1  0
 14 16  1  0
 16 17  2  0
  9 18  2  0
  4 19  1  0
 19 20  1  0
 20 21  2  0
 21 22  1  0
 22 23  2  0
 23 24  1  0
 23 25  1  0
 25 26  2  0
 19 27  1  0
 27 28  1  0
 27 29  2  0
 29  2  1  0
 18  5  1  0
 26 20  1  0
 17 11  1  0
M  END
>  <zinc_id>  (929) 
ZINC000013559321

>  <ortholog_name>  (929) 
DRTS_PLAFK

>  <gene_name>  (929) 
DRTS_PLAFK

>  <affinity>  (929) 
8.12

>  <chembldocid>  (929) 
17662

>  <title>  (929) 
None

>  <reference.pubmed_id>  (929) 
14736247

>  <reference.doi>  (929) 
None

>  <reference.chembl_id>  (929) 
CHEMBL1138835

>  <reference.journal>  (929) 
J. Med. Chem.

>  <reference.year>  (929) 
2004

$$$$

     RDKit          3D

 29 32  0  0  0  0  0  0  0  0999 V2000
   -2.3114   -4.1954   -3.0460 N   0  0  0  0  0  0  0  0  0  0  0  0
   -2.3378   -3.0027   -2.2113 C   0  0  0  0  0  0  0  0  0  0  0  0
   -1.3273   -2.3309   -2.2109 N   0  0  0  0  0  0  0  0  0  0  0  0
   -1.0069   -1.0294   -1.4601 C   0  0  2  0  0  0  0  0  0  0  0  0
   -0.0885   -1.5543   -0.2788 C   0  0  0  0  0  0  0  0  0  0  0  0
   -0.3712   -2.6359    0.4497 C   0  0  0  0  0  0  0  0  0  0  0  0
    0.4627   -3.0406    1.4592 C   0  0  0  0  0  0  0  0  0  0  0  0
    1.5934   -2.3225    1.7150 C   0  0  0  0  0  0  0  0  0  0  0  0
    1.9247   -1.2021    0.9905 C   0  0  0  0  0  0  0  0  0  0  0  0
    3.0701   -0.5206    1.2900 O   0  0  0  0  0  0  0  0  0  0  0  0
    3.5100    0.6158    0.6365 C   0  0  0  0  0  0  0  0  0  0  0  0
    3.1007    1.8308    1.1153 C   0  0  0  0  0  0  0  0  0  0  0  0
    3.4817    3.0326    0.5368 C   0  0  0  0  0  0  0  0  0  0  0  0
    4.3024    2.9799   -0.5591 C   0  0  0  0  0  0  0  0  0  0  0  0
    4.7727    4.5168   -1.2761 Cl  0  0  0  0  0  0  0  0  0  0  0  0
    4.7534    1.7744   -1.0943 C   0  0  0  0  0  0  0  0  0  0  0  0
    4.3314    0.6079   -0.4629 C   0  0  0  0  0  0  0  0  0  0  0  0
    1.0290   -0.8290   -0.0396 C   0  0  0  0  0  0  0  0  0  0  0  0
   -2.3300   -0.7963   -0.6932 N   0  0  0  0  0  0  0  0  0  0  0  0
   -2.2553    0.3923    0.0925 C   0  0  0  0  0  0  0  0  0  0  0  0
   -1.8030    0.3466    1.3839 C   0  0  0  0  0  0  0  0  0  0  0  0
   -1.7309    1.4956    2.1431 C   0  0  0  0  0  0  0  0  0  0  0  0
   -2.1048    2.7225    1.6452 C   0  0  0  0  0  0  0  0  0  0  0  0
   -2.0049    4.1896    2.6376 Cl  0  0  0  0  0  0  0  0  0  0  0  0
   -2.5629    2.7901    0.3474 C   0  0  0  0  0  0  0  0  0  0  0  0
   -2.6263    1.6300   -0.3919 C   0  0  0  0  0  0  0  0  0  0  0  0
   -3.4238   -1.6054   -0.7501 C   0  0  0  0  0  0  0  0  0  0  0  0
   -4.5517   -1.1786    0.0610 N   0  0  0  0  0  0  0  0  0  0  0  0
   -3.4955   -2.6811   -1.4592 N   0  0  0  0  0  0  0  0  0  0  0  0
  1  2  1  0
  2  3  2  0
  3  4  1  0
  4  5  1  1
  5  6  2  0
  6  7  1  0
  7  8  2  0
  8  9  1  0
  9 10  1  0
 10 11  1  0
 11 12  2  0
 12 13  1  0
 13 14  2  0
 14 15  1  0
 14 16  1  0
 16 17  2  0
  9 18  2  0
  4 19  1  0
 19 20  1  0
 20 21  2  0
 21 22  1  0
 22 23  2  0
 23 24  1  0
 23 25  1  0
 25 26  2  0
 19 27  1  0
 27 28  1  0
 27 29  2  0
 29  2  1  0
 18  5  1  0
 26 20  1  0
 17 11  1  0
M  END
>  <zinc_id>  (930) 
ZINC000013559321

>  <ortholog_name>  (930) 
DRTS_PLAFK

>  <gene_name>  (930) 
DRTS_PLAFK

>  <affinity>  (930) 
7.07

>  <chembldocid>  (930) 
17662

>  <title>  (930) 
None

>  <reference.pubmed_id>  (930) 
14736247

>  <reference.doi>  (930) 
None

>  <reference.chembl_id>  (930) 
CHEMBL1138835

>  <reference.journal>  (930) 
J. Med. Chem.

>  <reference.year>  (930) 
2004

$$$$

     RDKit          3D

 29 32  0  0  0  0  0  0  0  0999 V2000
    0.8104    3.7297   -0.8863 N   0  0  0  0  0  0  0  0  0  0  0  0
   -0.2653    2.7958   -0.6142 C   0  0  0  0  0  0  0  0  0  0  0  0
   -0.5242    2.0123   -1.5323 N   0  0  0  0  0  0  0  0  0  0  0  0
   -1.6376    0.9292   -1.4559 C   0  0  1  0  0  0  0  0  0  0  0  0
   -0.6459   -0.3146   -1.0729 C   0  0  0  0  0  0  0  0  0  0  0  0
   -0.8700   -1.4590   -1.7612 C   0  0  0  0  0  0  0  0  0  0  0  0
   -0.0315   -2.5357   -1.4479 C   0  0  0  0  0  0  0  0  0  0  0  0
    0.9604   -2.3866   -0.4767 C   0  0  0  0  0  0  0  0  0  0  0  0
    1.1181   -1.1798    0.1771 C   0  0  0  0  0  0  0  0  0  0  0  0
    2.1172   -1.0924    1.1288 O   0  0  0  0  0  0  0  0  0  0  0  0
    3.4232   -0.6950    0.8232 C   0  0  0  0  0  0  0  0  0  0  0  0
    4.3770   -0.6273    1.8174 C   0  0  0  0  0  0  0  0  0  0  0  0
    5.6871   -0.2350    1.5455 C   0  0  0  0  0  0  0  0  0  0  0  0
    6.0707    0.0995    0.2655 C   0  0  0  0  0  0  0  0  0  0  0  0
    7.7163    0.5976   -0.1042 Cl  0  0  0  0  0  0  0  0  0  0  0  0
    5.1278    0.0363   -0.7372 C   0  0  0  0  0  0  0  0  0  0  0  0
    3.8266   -0.3564   -0.4507 C   0  0  0  0  0  0  0  0  0  0  0  0
    0.2889   -0.1157   -0.1330 C   0  0  0  0  0  0  0  0  0  0  0  0
   -2.2313    1.1134   -0.0724 N   0  0  0  0  0  0  0  0  0  0  0  0
   -3.2799    0.2123    0.2110 C   0  0  0  0  0  0  0  0  0  0  0  0
   -4.6090    0.5392   -0.0907 C   0  0  0  0  0  0  0  0  0  0  0  0
   -5.6699   -0.2886    0.1584 C   0  0  0  0  0  0  0  0  0  0  0  0
   -5.4396   -1.5095    0.7346 C   0  0  0  0  0  0  0  0  0  0  0  0
   -4.1412   -1.8724    1.0490 C   0  0  0  0  0  0  0  0  0  0  0  0
   -3.9075   -3.4469    1.7847 Cl  0  0  0  0  0  0  0  0  0  0  0  0
   -3.0835   -1.0261    0.7912 C   0  0  0  0  0  0  0  0  0  0  0  0
   -1.8438    2.0381    0.8652 C   0  0  0  0  0  0  0  0  0  0  0  0
   -2.4710    2.1442    2.1698 N   0  0  0  0  0  0  0  0  0  0  0  0
   -0.8725    2.8933    0.6399 N   0  0  0  0  0  0  0  0  0  0  0  0
  1  2  1  0
  2  3  2  0
  3  4  1  0
  4  5  1  1
  5  6  2  0
  6  7  1  0
  7  8  2  0
  8  9  1  0
  9 10  1  0
 10 11  1  0
 11 12  2  0
 12 13  1  0
 13 14  2  0
 14 15  1  0
 14 16  1  0
 16 17  2  0
  9 18  2  0
  4 19  1  0
 19 20  1  0
 20 21  2  0
 21 22  1  0
 22 23  2  0
 23 24  1  0
 24 25  1  0
 24 26  2  0
 19 27  1  0
 27 28  1  0
 27 29  2  0
 29  2  1  0
 18  5  1  0
 26 20  1  0
 17 11  1  0
M  END
>  <zinc_id>  (931) 
ZINC000013559322

>  <ortholog_name>  (931) 
DRTS_PLAFK

>  <gene_name>  (931) 
DRTS_PLAFK

>  <affinity>  (931) 
8.89

>  <chembldocid>  (931) 
17662

>  <title>  (931) 
None

>  <reference.pubmed_id>  (931) 
14736247

>  <reference.doi>  (931) 
None

>  <reference.chembl_id>  (931) 
CHEMBL1138835

>  <reference.journal>  (931) 
J. Med. Chem.

>  <reference.year>  (931) 
2004

$$$$

     RDKit          3D

 29 32  0  0  0  0  0  0  0  0999 V2000
    0.8104    3.7297   -0.8863 N   0  0  0  0  0  0  0  0  0  0  0  0
   -0.2653    2.7958   -0.6142 C   0  0  0  0  0  0  0  0  0  0  0  0
   -0.5242    2.0123   -1.5323 N   0  0  0  0  0  0  0  0  0  0  0  0
   -1.6376    0.9292   -1.4559 C   0  0  1  0  0  0  0  0  0  0  0  0
   -0.6459   -0.3146   -1.0729 C   0  0  0  0  0  0  0  0  0  0  0  0
   -0.8700   -1.4590   -1.7612 C   0  0  0  0  0  0  0  0  0  0  0  0
   -0.0315   -2.5357   -1.4479 C   0  0  0  0  0  0  0  0  0  0  0  0
    0.9604   -2.3866   -0.4767 C   0  0  0  0  0  0  0  0  0  0  0  0
    1.1181   -1.1798    0.1771 C   0  0  0  0  0  0  0  0  0  0  0  0
    2.1172   -1.0924    1.1288 O   0  0  0  0  0  0  0  0  0  0  0  0
    3.4232   -0.6950    0.8232 C   0  0  0  0  0  0  0  0  0  0  0  0
    4.3770   -0.6273    1.8174 C   0  0  0  0  0  0  0  0  0  0  0  0
    5.6871   -0.2350    1.5455 C   0  0  0  0  0  0  0  0  0  0  0  0
    6.0707    0.0995    0.2655 C   0  0  0  0  0  0  0  0  0  0  0  0
    7.7163    0.5976   -0.1042 Cl  0  0  0  0  0  0  0  0  0  0  0  0
    5.1278    0.0363   -0.7372 C   0  0  0  0  0  0  0  0  0  0  0  0
    3.8266   -0.3564   -0.4507 C   0  0  0  0  0  0  0  0  0  0  0  0
    0.2889   -0.1157   -0.1330 C   0  0  0  0  0  0  0  0  0  0  0  0
   -2.2313    1.1134   -0.0724 N   0  0  0  0  0  0  0  0  0  0  0  0
   -3.2799    0.2123    0.2110 C   0  0  0  0  0  0  0  0  0  0  0  0
   -4.6090    0.5392   -0.0907 C   0  0  0  0  0  0  0  0  0  0  0  0
   -5.6699   -0.2886    0.1584 C   0  0  0  0  0  0  0  0  0  0  0  0
   -5.4396   -1.5095    0.7346 C   0  0  0  0  0  0  0  0  0  0  0  0
   -4.1412   -1.8724    1.0490 C   0  0  0  0  0  0  0  0  0  0  0  0
   -3.9075   -3.4469    1.7847 Cl  0  0  0  0  0  0  0  0  0  0  0  0
   -3.0835   -1.0261    0.7912 C   0  0  0  0  0  0  0  0  0  0  0  0
   -1.8438    2.0381    0.8652 C   0  0  0  0  0  0  0  0  0  0  0  0
   -2.4710    2.1442    2.1698 N   0  0  0  0  0  0  0  0  0  0  0  0
   -0.8725    2.8933    0.6399 N   0  0  0  0  0  0  0  0  0  0  0  0
  1  2  1  0
  2  3  2  0
  3  4  1  0
  4  5  1  1
  5  6  2  0
  6  7  1  0
  7  8  2  0
  8  9  1  0
  9 10  1  0
 10 11  1  0
 11 12  2  0
 12 13  1  0
 13 14  2  0
 14 15  1  0
 14 16  1  0
 16 17  2  0
  9 18  2  0
  4 19  1  0
 19 20  1  0
 20 21  2  0
 21 22  1  0
 22 23  2  0
 23 24  1  0
 24 25  1  0
 24 26  2  0
 19 27  1  0
 27 28  1  0
 27 29  2  0
 29  2  1  0
 18  5  1  0
 26 20  1  0
 17 11  1  0
M  END
>  <zinc_id>  (932) 
ZINC000013559322

>  <ortholog_name>  (932) 
DRTS_PLAFK

>  <gene_name>  (932) 
DRTS_PLAFK

>  <affinity>  (932) 
8.72

>  <chembldocid>  (932) 
17662

>  <title>  (932) 
None

>  <reference.pubmed_id>  (932) 
14736247

>  <reference.doi>  (932) 
None

>  <reference.chembl_id>  (932) 
CHEMBL1138835

>  <reference.journal>  (932) 
J. Med. Chem.

>  <reference.year>  (932) 
2004

$$$$

     RDKit          3D

 29 32  0  0  0  0  0  0  0  0999 V2000
    0.8104    3.7297   -0.8863 N   0  0  0  0  0  0  0  0  0  0  0  0
   -0.2653    2.7958   -0.6142 C   0  0  0  0  0  0  0  0  0  0  0  0
   -0.5242    2.0123   -1.5323 N   0  0  0  0  0  0  0  0  0  0  0  0
   -1.6376    0.9292   -1.4559 C   0  0  1  0  0  0  0  0  0  0  0  0
   -0.6459   -0.3146   -1.0729 C   0  0  0  0  0  0  0  0  0  0  0  0
   -0.8700   -1.4590   -1.7612 C   0  0  0  0  0  0  0  0  0  0  0  0
   -0.0315   -2.5357   -1.4479 C   0  0  0  0  0  0  0  0  0  0  0  0
    0.9604   -2.3866   -0.4767 C   0  0  0  0  0  0  0  0  0  0  0  0
    1.1181   -1.1798    0.1771 C   0  0  0  0  0  0  0  0  0  0  0  0
    2.1172   -1.0924    1.1288 O   0  0  0  0  0  0  0  0  0  0  0  0
    3.4232   -0.6950    0.8232 C   0  0  0  0  0  0  0  0  0  0  0  0
    4.3770   -0.6273    1.8174 C   0  0  0  0  0  0  0  0  0  0  0  0
    5.6871   -0.2350    1.5455 C   0  0  0  0  0  0  0  0  0  0  0  0
    6.0707    0.0995    0.2655 C   0  0  0  0  0  0  0  0  0  0  0  0
    7.7163    0.5976   -0.1042 Cl  0  0  0  0  0  0  0  0  0  0  0  0
    5.1278    0.0363   -0.7372 C   0  0  0  0  0  0  0  0  0  0  0  0
    3.8266   -0.3564   -0.4507 C   0  0  0  0  0  0  0  0  0  0  0  0
    0.2889   -0.1157   -0.1330 C   0  0  0  0  0  0  0  0  0  0  0  0
   -2.2313    1.1134   -0.0724 N   0  0  0  0  0  0  0  0  0  0  0  0
   -3.2799    0.2123    0.2110 C   0  0  0  0  0  0  0  0  0  0  0  0
   -4.6090    0.5392   -0.0907 C   0  0  0  0  0  0  0  0  0  0  0  0
   -5.6699   -0.2886    0.1584 C   0  0  0  0  0  0  0  0  0  0  0  0
   -5.4396   -1.5095    0.7346 C   0  0  0  0  0  0  0  0  0  0  0  0
   -4.1412   -1.8724    1.0490 C   0  0  0  0  0  0  0  0  0  0  0  0
   -3.9075   -3.4469    1.7847 Cl  0  0  0  0  0  0  0  0  0  0  0  0
   -3.0835   -1.0261    0.7912 C   0  0  0  0  0  0  0  0  0  0  0  0
   -1.8438    2.0381    0.8652 C   0  0  0  0  0  0  0  0  0  0  0  0
   -2.4710    2.1442    2.1698 N   0  0  0  0  0  0  0  0  0  0  0  0
   -0.8725    2.8933    0.6399 N   0  0  0  0  0  0  0  0  0  0  0  0
  1  2  1  0
  2  3  2  0
  3  4  1  0
  4  5  1  1
  5  6  2  0
  6  7  1  0
  7  8  2  0
  8  9  1  0
  9 10  1  0
 10 11  1  0
 11 12  2  0
 12 13  1  0
 13 14  2  0
 14 15  1  0
 14 16  1  0
 16 17  2  0
  9 18  2  0
  4 19  1  0
 19 20  1  0
 20 21  2  0
 21 22  1  0
 22 23  2  0
 23 24  1  0
 24 25  1  0
 24 26  2  0
 19 27  1  0
 27 28  1  0
 27 29  2  0
 29  2  1  0
 18  5  1  0
 26 20  1  0
 17 11  1  0
M  END
>  <zinc_id>  (933) 
ZINC000013559322

>  <ortholog_name>  (933) 
DRTS_PLAFK

>  <gene_name>  (933) 
DRTS_PLAFK

>  <affinity>  (933) 
5.70

>  <chembldocid>  (933) 
17662

>  <title>  (933) 
None

>  <reference.pubmed_id>  (933) 
14736247

>  <reference.doi>  (933) 
None

>  <reference.chembl_id>  (933) 
CHEMBL1138835

>  <reference.journal>  (933) 
J. Med. Chem.

>  <reference.year>  (933) 
2004

$$$$

     RDKit          3D

 29 32  0  0  0  0  0  0  0  0999 V2000
    0.8104    3.7297   -0.8863 N   0  0  0  0  0  0  0  0  0  0  0  0
   -0.2653    2.7958   -0.6142 C   0  0  0  0  0  0  0  0  0  0  0  0
   -0.5242    2.0123   -1.5323 N   0  0  0  0  0  0  0  0  0  0  0  0
   -1.6376    0.9292   -1.4559 C   0  0  1  0  0  0  0  0  0  0  0  0
   -0.6459   -0.3146   -1.0729 C   0  0  0  0  0  0  0  0  0  0  0  0
   -0.8700   -1.4590   -1.7612 C   0  0  0  0  0  0  0  0  0  0  0  0
   -0.0315   -2.5357   -1.4479 C   0  0  0  0  0  0  0  0  0  0  0  0
    0.9604   -2.3866   -0.4767 C   0  0  0  0  0  0  0  0  0  0  0  0
    1.1181   -1.1798    0.1771 C   0  0  0  0  0  0  0  0  0  0  0  0
    2.1172   -1.0924    1.1288 O   0  0  0  0  0  0  0  0  0  0  0  0
    3.4232   -0.6950    0.8232 C   0  0  0  0  0  0  0  0  0  0  0  0
    4.3770   -0.6273    1.8174 C   0  0  0  0  0  0  0  0  0  0  0  0
    5.6871   -0.2350    1.5455 C   0  0  0  0  0  0  0  0  0  0  0  0
    6.0707    0.0995    0.2655 C   0  0  0  0  0  0  0  0  0  0  0  0
    7.7163    0.5976   -0.1042 Cl  0  0  0  0  0  0  0  0  0  0  0  0
    5.1278    0.0363   -0.7372 C   0  0  0  0  0  0  0  0  0  0  0  0
    3.8266   -0.3564   -0.4507 C   0  0  0  0  0  0  0  0  0  0  0  0
    0.2889   -0.1157   -0.1330 C   0  0  0  0  0  0  0  0  0  0  0  0
   -2.2313    1.1134   -0.0724 N   0  0  0  0  0  0  0  0  0  0  0  0
   -3.2799    0.2123    0.2110 C   0  0  0  0  0  0  0  0  0  0  0  0
   -4.6090    0.5392   -0.0907 C   0  0  0  0  0  0  0  0  0  0  0  0
   -5.6699   -0.2886    0.1584 C   0  0  0  0  0  0  0  0  0  0  0  0
   -5.4396   -1.5095    0.7346 C   0  0  0  0  0  0  0  0  0  0  0  0
   -4.1412   -1.8724    1.0490 C   0  0  0  0  0  0  0  0  0  0  0  0
   -3.9075   -3.4469    1.7847 Cl  0  0  0  0  0  0  0  0  0  0  0  0
   -3.0835   -1.0261    0.7912 C   0  0  0  0  0  0  0  0  0  0  0  0
   -1.8438    2.0381    0.8652 C   0  0  0  0  0  0  0  0  0  0  0  0
   -2.4710    2.1442    2.1698 N   0  0  0  0  0  0  0  0  0  0  0  0
   -0.8725    2.8933    0.6399 N   0  0  0  0  0  0  0  0  0  0  0  0
  1  2  1  0
  2  3  2  0
  3  4  1  0
  4  5  1  1
  5  6  2  0
  6  7  1  0
  7  8  2  0
  8  9  1  0
  9 10  1  0
 10 11  1  0
 11 12  2  0
 12 13  1  0
 13 14  2  0
 14 15  1  0
 14 16  1  0
 16 17  2  0
  9 18  2  0
  4 19  1  0
 19 20  1  0
 20 21  2  0
 21 22  1  0
 22 23  2  0
 23 24  1  0
 24 25  1  0
 24 26  2  0
 19 27  1  0
 27 28  1  0
 27 29  2  0
 29  2  1  0
 18  5  1  0
 26 20  1  0
 17 11  1  0
M  END
>  <zinc_id>  (934) 
ZINC000013559322

>  <ortholog_name>  (934) 
DRTS_PLAFK

>  <gene_name>  (934) 
DRTS_PLAFK

>  <affinity>  (934) 
5.59

>  <chembldocid>  (934) 
17662

>  <title>  (934) 
None

>  <reference.pubmed_id>  (934) 
14736247

>  <reference.doi>  (934) 
None

>  <reference.chembl_id>  (934) 
CHEMBL1138835

>  <reference.journal>  (934) 
J. Med. Chem.

>  <reference.year>  (934) 
2004

$$$$

     RDKit          3D

 29 32  0  0  0  0  0  0  0  0999 V2000
    0.8104    3.7297   -0.8863 N   0  0  0  0  0  0  0  0  0  0  0  0
   -0.2653    2.7958   -0.6142 C   0  0  0  0  0  0  0  0  0  0  0  0
   -0.5242    2.0123   -1.5323 N   0  0  0  0  0  0  0  0  0  0  0  0
   -1.6376    0.9292   -1.4559 C   0  0  1  0  0  0  0  0  0  0  0  0
   -0.6459   -0.3146   -1.0729 C   0  0  0  0  0  0  0  0  0  0  0  0
   -0.8700   -1.4590   -1.7612 C   0  0  0  0  0  0  0  0  0  0  0  0
   -0.0315   -2.5357   -1.4479 C   0  0  0  0  0  0  0  0  0  0  0  0
    0.9604   -2.3866   -0.4767 C   0  0  0  0  0  0  0  0  0  0  0  0
    1.1181   -1.1798    0.1771 C   0  0  0  0  0  0  0  0  0  0  0  0
    2.1172   -1.0924    1.1288 O   0  0  0  0  0  0  0  0  0  0  0  0
    3.4232   -0.6950    0.8232 C   0  0  0  0  0  0  0  0  0  0  0  0
    4.3770   -0.6273    1.8174 C   0  0  0  0  0  0  0  0  0  0  0  0
    5.6871   -0.2350    1.5455 C   0  0  0  0  0  0  0  0  0  0  0  0
    6.0707    0.0995    0.2655 C   0  0  0  0  0  0  0  0  0  0  0  0
    7.7163    0.5976   -0.1042 Cl  0  0  0  0  0  0  0  0  0  0  0  0
    5.1278    0.0363   -0.7372 C   0  0  0  0  0  0  0  0  0  0  0  0
    3.8266   -0.3564   -0.4507 C   0  0  0  0  0  0  0  0  0  0  0  0
    0.2889   -0.1157   -0.1330 C   0  0  0  0  0  0  0  0  0  0  0  0
   -2.2313    1.1134   -0.0724 N   0  0  0  0  0  0  0  0  0  0  0  0
   -3.2799    0.2123    0.2110 C   0  0  0  0  0  0  0  0  0  0  0  0
   -4.6090    0.5392   -0.0907 C   0  0  0  0  0  0  0  0  0  0  0  0
   -5.6699   -0.2886    0.1584 C   0  0  0  0  0  0  0  0  0  0  0  0
   -5.4396   -1.5095    0.7346 C   0  0  0  0  0  0  0  0  0  0  0  0
   -4.1412   -1.8724    1.0490 C   0  0  0  0  0  0  0  0  0  0  0  0
   -3.9075   -3.4469    1.7847 Cl  0  0  0  0  0  0  0  0  0  0  0  0
   -3.0835   -1.0261    0.7912 C   0  0  0  0  0  0  0  0  0  0  0  0
   -1.8438    2.0381    0.8652 C   0  0  0  0  0  0  0  0  0  0  0  0
   -2.4710    2.1442    2.1698 N   0  0  0  0  0  0  0  0  0  0  0  0
   -0.8725    2.8933    0.6399 N   0  0  0  0  0  0  0  0  0  0  0  0
  1  2  1  0
  2  3  2  0
  3  4  1  0
  4  5  1  1
  5  6  2  0
  6  7  1  0
  7  8  2  0
  8  9  1  0
  9 10  1  0
 10 11  1  0
 11 12  2  0
 12 13  1  0
 13 14  2  0
 14 15  1  0
 14 16  1  0
 16 17  2  0
  9 18  2  0
  4 19  1  0
 19 20  1  0
 20 21  2  0
 21 22  1  0
 22 23  2  0
 23 24  1  0
 24 25  1  0
 24 26  2  0
 19 27  1  0
 27 28  1  0
 27 29  2  0
 29  2  1  0
 18  5  1  0
 26 20  1  0
 17 11  1  0
M  END
>  <zinc_id>  (935) 
ZINC000013559322

>  <ortholog_name>  (935) 
DRTS_PLAFK

>  <gene_name>  (935) 
DRTS_PLAFK

>  <affinity>  (935) 
8.46

>  <chembldocid>  (935) 
17662

>  <title>  (935) 
None

>  <reference.pubmed_id>  (935) 
14736247

>  <reference.doi>  (935) 
None

>  <reference.chembl_id>  (935) 
CHEMBL1138835

>  <reference.journal>  (935) 
J. Med. Chem.

>  <reference.year>  (935) 
2004

$$$$

     RDKit          3D

 29 32  0  0  0  0  0  0  0  0999 V2000
    0.8104    3.7297   -0.8863 N   0  0  0  0  0  0  0  0  0  0  0  0
   -0.2653    2.7958   -0.6142 C   0  0  0  0  0  0  0  0  0  0  0  0
   -0.5242    2.0123   -1.5323 N   0  0  0  0  0  0  0  0  0  0  0  0
   -1.6376    0.9292   -1.4559 C   0  0  1  0  0  0  0  0  0  0  0  0
   -0.6459   -0.3146   -1.0729 C   0  0  0  0  0  0  0  0  0  0  0  0
   -0.8700   -1.4590   -1.7612 C   0  0  0  0  0  0  0  0  0  0  0  0
   -0.0315   -2.5357   -1.4479 C   0  0  0  0  0  0  0  0  0  0  0  0
    0.9604   -2.3866   -0.4767 C   0  0  0  0  0  0  0  0  0  0  0  0
    1.1181   -1.1798    0.1771 C   0  0  0  0  0  0  0  0  0  0  0  0
    2.1172   -1.0924    1.1288 O   0  0  0  0  0  0  0  0  0  0  0  0
    3.4232   -0.6950    0.8232 C   0  0  0  0  0  0  0  0  0  0  0  0
    4.3770   -0.6273    1.8174 C   0  0  0  0  0  0  0  0  0  0  0  0
    5.6871   -0.2350    1.5455 C   0  0  0  0  0  0  0  0  0  0  0  0
    6.0707    0.0995    0.2655 C   0  0  0  0  0  0  0  0  0  0  0  0
    7.7163    0.5976   -0.1042 Cl  0  0  0  0  0  0  0  0  0  0  0  0
    5.1278    0.0363   -0.7372 C   0  0  0  0  0  0  0  0  0  0  0  0
    3.8266   -0.3564   -0.4507 C   0  0  0  0  0  0  0  0  0  0  0  0
    0.2889   -0.1157   -0.1330 C   0  0  0  0  0  0  0  0  0  0  0  0
   -2.2313    1.1134   -0.0724 N   0  0  0  0  0  0  0  0  0  0  0  0
   -3.2799    0.2123    0.2110 C   0  0  0  0  0  0  0  0  0  0  0  0
   -4.6090    0.5392   -0.0907 C   0  0  0  0  0  0  0  0  0  0  0  0
   -5.6699   -0.2886    0.1584 C   0  0  0  0  0  0  0  0  0  0  0  0
   -5.4396   -1.5095    0.7346 C   0  0  0  0  0  0  0  0  0  0  0  0
   -4.1412   -1.8724    1.0490 C   0  0  0  0  0  0  0  0  0  0  0  0
   -3.9075   -3.4469    1.7847 Cl  0  0  0  0  0  0  0  0  0  0  0  0
   -3.0835   -1.0261    0.7912 C   0  0  0  0  0  0  0  0  0  0  0  0
   -1.8438    2.0381    0.8652 C   0  0  0  0  0  0  0  0  0  0  0  0
   -2.4710    2.1442    2.1698 N   0  0  0  0  0  0  0  0  0  0  0  0
   -0.8725    2.8933    0.6399 N   0  0  0  0  0  0  0  0  0  0  0  0
  1  2  1  0
  2  3  2  0
  3  4  1  0
  4  5  1  1
  5  6  2  0
  6  7  1  0
  7  8  2  0
  8  9  1  0
  9 10  1  0
 10 11  1  0
 11 12  2  0
 12 13  1  0
 13 14  2  0
 14 15  1  0
 14 16  1  0
 16 17  2  0
  9 18  2  0
  4 19  1  0
 19 20  1  0
 20 21  2  0
 21 22  1  0
 22 23  2  0
 23 24  1  0
 24 25  1  0
 24 26  2  0
 19 27  1  0
 27 28  1  0
 27 29  2  0
 29  2  1  0
 18  5  1  0
 26 20  1  0
 17 11  1  0
M  END
>  <zinc_id>  (936) 
ZINC000013559322

>  <ortholog_name>  (936) 
DRTS_PLAFK

>  <gene_name>  (936) 
DRTS_PLAFK

>  <affinity>  (936) 
5.51

>  <chembldocid>  (936) 
17662

>  <title>  (936) 
None

>  <reference.pubmed_id>  (936) 
14736247

>  <reference.doi>  (936) 
None

>  <reference.chembl_id>  (936) 
CHEMBL1138835

>  <reference.journal>  (936) 
J. Med. Chem.

>  <reference.year>  (936) 
2004

$$$$

     RDKit          3D

 29 32  0  0  0  0  0  0  0  0999 V2000
    0.8104    3.7297   -0.8863 N   0  0  0  0  0  0  0  0  0  0  0  0
   -0.2653    2.7958   -0.6142 C   0  0  0  0  0  0  0  0  0  0  0  0
   -0.5242    2.0123   -1.5323 N   0  0  0  0  0  0  0  0  0  0  0  0
   -1.6376    0.9292   -1.4559 C   0  0  1  0  0  0  0  0  0  0  0  0
   -0.6459   -0.3146   -1.0729 C   0  0  0  0  0  0  0  0  0  0  0  0
   -0.8700   -1.4590   -1.7612 C   0  0  0  0  0  0  0  0  0  0  0  0
   -0.0315   -2.5357   -1.4479 C   0  0  0  0  0  0  0  0  0  0  0  0
    0.9604   -2.3866   -0.4767 C   0  0  0  0  0  0  0  0  0  0  0  0
    1.1181   -1.1798    0.1771 C   0  0  0  0  0  0  0  0  0  0  0  0
    2.1172   -1.0924    1.1288 O   0  0  0  0  0  0  0  0  0  0  0  0
    3.4232   -0.6950    0.8232 C   0  0  0  0  0  0  0  0  0  0  0  0
    4.3770   -0.6273    1.8174 C   0  0  0  0  0  0  0  0  0  0  0  0
    5.6871   -0.2350    1.5455 C   0  0  0  0  0  0  0  0  0  0  0  0
    6.0707    0.0995    0.2655 C   0  0  0  0  0  0  0  0  0  0  0  0
    7.7163    0.5976   -0.1042 Cl  0  0  0  0  0  0  0  0  0  0  0  0
    5.1278    0.0363   -0.7372 C   0  0  0  0  0  0  0  0  0  0  0  0
    3.8266   -0.3564   -0.4507 C   0  0  0  0  0  0  0  0  0  0  0  0
    0.2889   -0.1157   -0.1330 C   0  0  0  0  0  0  0  0  0  0  0  0
   -2.2313    1.1134   -0.0724 N   0  0  0  0  0  0  0  0  0  0  0  0
   -3.2799    0.2123    0.2110 C   0  0  0  0  0  0  0  0  0  0  0  0
   -4.6090    0.5392   -0.0907 C   0  0  0  0  0  0  0  0  0  0  0  0
   -5.6699   -0.2886    0.1584 C   0  0  0  0  0  0  0  0  0  0  0  0
   -5.4396   -1.5095    0.7346 C   0  0  0  0  0  0  0  0  0  0  0  0
   -4.1412   -1.8724    1.0490 C   0  0  0  0  0  0  0  0  0  0  0  0
   -3.9075   -3.4469    1.7847 Cl  0  0  0  0  0  0  0  0  0  0  0  0
   -3.0835   -1.0261    0.7912 C   0  0  0  0  0  0  0  0  0  0  0  0
   -1.8438    2.0381    0.8652 C   0  0  0  0  0  0  0  0  0  0  0  0
   -2.4710    2.1442    2.1698 N   0  0  0  0  0  0  0  0  0  0  0  0
   -0.8725    2.8933    0.6399 N   0  0  0  0  0  0  0  0  0  0  0  0
  1  2  1  0
  2  3  2  0
  3  4  1  0
  4  5  1  1
  5  6  2  0
  6  7  1  0
  7  8  2  0
  8  9  1  0
  9 10  1  0
 10 11  1  0
 11 12  2  0
 12 13  1  0
 13 14  2  0
 14 15  1  0
 14 16  1  0
 16 17  2  0
  9 18  2  0
  4 19  1  0
 19 20  1  0
 20 21  2  0
 21 22  1  0
 22 23  2  0
 23 24  1  0
 24 25  1  0
 24 26  2  0
 19 27  1  0
 27 28  1  0
 27 29  2  0
 29  2  1  0
 18  5  1  0
 26 20  1  0
 17 11  1  0
M  END
>  <zinc_id>  (937) 
ZINC000013559322

>  <ortholog_name>  (937) 
DRTS_PLAFK

>  <gene_name>  (937) 
DRTS_PLAFK

>  <affinity>  (937) 
5.49

>  <chembldocid>  (937) 
17662

>  <title>  (937) 
None

>  <reference.pubmed_id>  (937) 
14736247

>  <reference.doi>  (937) 
None

>  <reference.chembl_id>  (937) 
CHEMBL1138835

>  <reference.journal>  (937) 
J. Med. Chem.

>  <reference.year>  (937) 
2004

$$$$

     RDKit          3D

 29 32  0  0  0  0  0  0  0  0999 V2000
    0.8104    3.7297   -0.8863 N   0  0  0  0  0  0  0  0  0  0  0  0
   -0.2653    2.7958   -0.6142 C   0  0  0  0  0  0  0  0  0  0  0  0
   -0.5242    2.0123   -1.5323 N   0  0  0  0  0  0  0  0  0  0  0  0
   -1.6376    0.9292   -1.4559 C   0  0  1  0  0  0  0  0  0  0  0  0
   -0.6459   -0.3146   -1.0729 C   0  0  0  0  0  0  0  0  0  0  0  0
   -0.8700   -1.4590   -1.7612 C   0  0  0  0  0  0  0  0  0  0  0  0
   -0.0315   -2.5357   -1.4479 C   0  0  0  0  0  0  0  0  0  0  0  0
    0.9604   -2.3866   -0.4767 C   0  0  0  0  0  0  0  0  0  0  0  0
    1.1181   -1.1798    0.1771 C   0  0  0  0  0  0  0  0  0  0  0  0
    2.1172   -1.0924    1.1288 O   0  0  0  0  0  0  0  0  0  0  0  0
    3.4232   -0.6950    0.8232 C   0  0  0  0  0  0  0  0  0  0  0  0
    4.3770   -0.6273    1.8174 C   0  0  0  0  0  0  0  0  0  0  0  0
    5.6871   -0.2350    1.5455 C   0  0  0  0  0  0  0  0  0  0  0  0
    6.0707    0.0995    0.2655 C   0  0  0  0  0  0  0  0  0  0  0  0
    7.7163    0.5976   -0.1042 Cl  0  0  0  0  0  0  0  0  0  0  0  0
    5.1278    0.0363   -0.7372 C   0  0  0  0  0  0  0  0  0  0  0  0
    3.8266   -0.3564   -0.4507 C   0  0  0  0  0  0  0  0  0  0  0  0
    0.2889   -0.1157   -0.1330 C   0  0  0  0  0  0  0  0  0  0  0  0
   -2.2313    1.1134   -0.0724 N   0  0  0  0  0  0  0  0  0  0  0  0
   -3.2799    0.2123    0.2110 C   0  0  0  0  0  0  0  0  0  0  0  0
   -4.6090    0.5392   -0.0907 C   0  0  0  0  0  0  0  0  0  0  0  0
   -5.6699   -0.2886    0.1584 C   0  0  0  0  0  0  0  0  0  0  0  0
   -5.4396   -1.5095    0.7346 C   0  0  0  0  0  0  0  0  0  0  0  0
   -4.1412   -1.8724    1.0490 C   0  0  0  0  0  0  0  0  0  0  0  0
   -3.9075   -3.4469    1.7847 Cl  0  0  0  0  0  0  0  0  0  0  0  0
   -3.0835   -1.0261    0.7912 C   0  0  0  0  0  0  0  0  0  0  0  0
   -1.8438    2.0381    0.8652 C   0  0  0  0  0  0  0  0  0  0  0  0
   -2.4710    2.1442    2.1698 N   0  0  0  0  0  0  0  0  0  0  0  0
   -0.8725    2.8933    0.6399 N   0  0  0  0  0  0  0  0  0  0  0  0
  1  2  1  0
  2  3  2  0
  3  4  1  0
  4  5  1  1
  5  6  2  0
  6  7  1  0
  7  8  2  0
  8  9  1  0
  9 10  1  0
 10 11  1  0
 11 12  2  0
 12 13  1  0
 13 14  2  0
 14 15  1  0
 14 16  1  0
 16 17  2  0
  9 18  2  0
  4 19  1  0
 19 20  1  0
 20 21  2  0
 21 22  1  0
 22 23  2  0
 23 24  1  0
 24 25  1  0
 24 26  2  0
 19 27  1  0
 27 28  1  0
 27 29  2  0
 29  2  1  0
 18  5  1  0
 26 20  1  0
 17 11  1  0
M  END
>  <zinc_id>  (938) 
ZINC000013559322

>  <ortholog_name>  (938) 
DRTS_PLAFK

>  <gene_name>  (938) 
DRTS_PLAFK

>  <affinity>  (938) 
6.41

>  <chembldocid>  (938) 
17662

>  <title>  (938) 
None

>  <reference.pubmed_id>  (938) 
14736247

>  <reference.doi>  (938) 
None

>  <reference.chembl_id>  (938) 
CHEMBL1138835

>  <reference.journal>  (938) 
J. Med. Chem.

>  <reference.year>  (938) 
2004

$$$$

     RDKit          3D

 29 32  0  0  0  0  0  0  0  0999 V2000
    0.8104    3.7297   -0.8863 N   0  0  0  0  0  0  0  0  0  0  0  0
   -0.2653    2.7958   -0.6142 C   0  0  0  0  0  0  0  0  0  0  0  0
   -0.5242    2.0123   -1.5323 N   0  0  0  0  0  0  0  0  0  0  0  0
   -1.6376    0.9292   -1.4559 C   0  0  1  0  0  0  0  0  0  0  0  0
   -0.6459   -0.3146   -1.0729 C   0  0  0  0  0  0  0  0  0  0  0  0
   -0.8700   -1.4590   -1.7612 C   0  0  0  0  0  0  0  0  0  0  0  0
   -0.0315   -2.5357   -1.4479 C   0  0  0  0  0  0  0  0  0  0  0  0
    0.9604   -2.3866   -0.4767 C   0  0  0  0  0  0  0  0  0  0  0  0
    1.1181   -1.1798    0.1771 C   0  0  0  0  0  0  0  0  0  0  0  0
    2.1172   -1.0924    1.1288 O   0  0  0  0  0  0  0  0  0  0  0  0
    3.4232   -0.6950    0.8232 C   0  0  0  0  0  0  0  0  0  0  0  0
    4.3770   -0.6273    1.8174 C   0  0  0  0  0  0  0  0  0  0  0  0
    5.6871   -0.2350    1.5455 C   0  0  0  0  0  0  0  0  0  0  0  0
    6.0707    0.0995    0.2655 C   0  0  0  0  0  0  0  0  0  0  0  0
    7.7163    0.5976   -0.1042 Cl  0  0  0  0  0  0  0  0  0  0  0  0
    5.1278    0.0363   -0.7372 C   0  0  0  0  0  0  0  0  0  0  0  0
    3.8266   -0.3564   -0.4507 C   0  0  0  0  0  0  0  0  0  0  0  0
    0.2889   -0.1157   -0.1330 C   0  0  0  0  0  0  0  0  0  0  0  0
   -2.2313    1.1134   -0.0724 N   0  0  0  0  0  0  0  0  0  0  0  0
   -3.2799    0.2123    0.2110 C   0  0  0  0  0  0  0  0  0  0  0  0
   -4.6090    0.5392   -0.0907 C   0  0  0  0  0  0  0  0  0  0  0  0
   -5.6699   -0.2886    0.1584 C   0  0  0  0  0  0  0  0  0  0  0  0
   -5.4396   -1.5095    0.7346 C   0  0  0  0  0  0  0  0  0  0  0  0
   -4.1412   -1.8724    1.0490 C   0  0  0  0  0  0  0  0  0  0  0  0
   -3.9075   -3.4469    1.7847 Cl  0  0  0  0  0  0  0  0  0  0  0  0
   -3.0835   -1.0261    0.7912 C   0  0  0  0  0  0  0  0  0  0  0  0
   -1.8438    2.0381    0.8652 C   0  0  0  0  0  0  0  0  0  0  0  0
   -2.4710    2.1442    2.1698 N   0  0  0  0  0  0  0  0  0  0  0  0
   -0.8725    2.8933    0.6399 N   0  0  0  0  0  0  0  0  0  0  0  0
  1  2  1  0
  2  3  2  0
  3  4  1  0
  4  5  1  1
  5  6  2  0
  6  7  1  0
  7  8  2  0
  8  9  1  0
  9 10  1  0
 10 11  1  0
 11 12  2  0
 12 13  1  0
 13 14  2  0
 14 15  1  0
 14 16  1  0
 16 17  2  0
  9 18  2  0
  4 19  1  0
 19 20  1  0
 20 21  2  0
 21 22  1  0
 22 23  2  0
 23 24  1  0
 24 25  1  0
 24 26  2  0
 19 27  1  0
 27 28  1  0
 27 29  2  0
 29  2  1  0
 18  5  1  0
 26 20  1  0
 17 11  1  0
M  END
>  <zinc_id>  (939) 
ZINC000013559322

>  <ortholog_name>  (939) 
DRTS_PLAFK

>  <gene_name>  (939) 
DRTS_PLAFK

>  <affinity>  (939) 
5.41

>  <chembldocid>  (939) 
17662

>  <title>  (939) 
None

>  <reference.pubmed_id>  (939) 
14736247

>  <reference.doi>  (939) 
None

>  <reference.chembl_id>  (939) 
CHEMBL1138835

>  <reference.journal>  (939) 
J. Med. Chem.

>  <reference.year>  (939) 
2004

$$$$

     RDKit          3D

 29 32  0  0  0  0  0  0  0  0999 V2000
    0.8104    3.7297   -0.8863 N   0  0  0  0  0  0  0  0  0  0  0  0
   -0.2653    2.7958   -0.6142 C   0  0  0  0  0  0  0  0  0  0  0  0
   -0.5242    2.0123   -1.5323 N   0  0  0  0  0  0  0  0  0  0  0  0
   -1.6376    0.9292   -1.4559 C   0  0  1  0  0  0  0  0  0  0  0  0
   -0.6459   -0.3146   -1.0729 C   0  0  0  0  0  0  0  0  0  0  0  0
   -0.8700   -1.4590   -1.7612 C   0  0  0  0  0  0  0  0  0  0  0  0
   -0.0315   -2.5357   -1.4479 C   0  0  0  0  0  0  0  0  0  0  0  0
    0.9604   -2.3866   -0.4767 C   0  0  0  0  0  0  0  0  0  0  0  0
    1.1181   -1.1798    0.1771 C   0  0  0  0  0  0  0  0  0  0  0  0
    2.1172   -1.0924    1.1288 O   0  0  0  0  0  0  0  0  0  0  0  0
    3.4232   -0.6950    0.8232 C   0  0  0  0  0  0  0  0  0  0  0  0
    4.3770   -0.6273    1.8174 C   0  0  0  0  0  0  0  0  0  0  0  0
    5.6871   -0.2350    1.5455 C   0  0  0  0  0  0  0  0  0  0  0  0
    6.0707    0.0995    0.2655 C   0  0  0  0  0  0  0  0  0  0  0  0
    7.7163    0.5976   -0.1042 Cl  0  0  0  0  0  0  0  0  0  0  0  0
    5.1278    0.0363   -0.7372 C   0  0  0  0  0  0  0  0  0  0  0  0
    3.8266   -0.3564   -0.4507 C   0  0  0  0  0  0  0  0  0  0  0  0
    0.2889   -0.1157   -0.1330 C   0  0  0  0  0  0  0  0  0  0  0  0
   -2.2313    1.1134   -0.0724 N   0  0  0  0  0  0  0  0  0  0  0  0
   -3.2799    0.2123    0.2110 C   0  0  0  0  0  0  0  0  0  0  0  0
   -4.6090    0.5392   -0.0907 C   0  0  0  0  0  0  0  0  0  0  0  0
   -5.6699   -0.2886    0.1584 C   0  0  0  0  0  0  0  0  0  0  0  0
   -5.4396   -1.5095    0.7346 C   0  0  0  0  0  0  0  0  0  0  0  0
   -4.1412   -1.8724    1.0490 C   0  0  0  0  0  0  0  0  0  0  0  0
   -3.9075   -3.4469    1.7847 Cl  0  0  0  0  0  0  0  0  0  0  0  0
   -3.0835   -1.0261    0.7912 C   0  0  0  0  0  0  0  0  0  0  0  0
   -1.8438    2.0381    0.8652 C   0  0  0  0  0  0  0  0  0  0  0  0
   -2.4710    2.1442    2.1698 N   0  0  0  0  0  0  0  0  0  0  0  0
   -0.8725    2.8933    0.6399 N   0  0  0  0  0  0  0  0  0  0  0  0
  1  2  1  0
  2  3  2  0
  3  4  1  0
  4  5  1  1
  5  6  2  0
  6  7  1  0
  7  8  2  0
  8  9  1  0
  9 10  1  0
 10 11  1  0
 11 12  2  0
 12 13  1  0
 13 14  2  0
 14 15  1  0
 14 16  1  0
 16 17  2  0
  9 18  2  0
  4 19  1  0
 19 20  1  0
 20 21  2  0
 21 22  1  0
 22 23  2  0
 23 24  1  0
 24 25  1  0
 24 26  2  0
 19 27  1  0
 27 28  1  0
 27 29  2  0
 29  2  1  0
 18  5  1  0
 26 20  1  0
 17 11  1  0
M  END
>  <zinc_id>  (940) 
ZINC000013559322

>  <ortholog_name>  (940) 
DRTS_PLAFK

>  <gene_name>  (940) 
DRTS_PLAFK

>  <affinity>  (940) 
8.29

>  <chembldocid>  (940) 
17662

>  <title>  (940) 
None

>  <reference.pubmed_id>  (940) 
14736247

>  <reference.doi>  (940) 
None

>  <reference.chembl_id>  (940) 
CHEMBL1138835

>  <reference.journal>  (940) 
J. Med. Chem.

>  <reference.year>  (940) 
2004

$$$$

     RDKit          3D

 29 32  0  0  0  0  0  0  0  0999 V2000
    0.8104    3.7297   -0.8863 N   0  0  0  0  0  0  0  0  0  0  0  0
   -0.2653    2.7958   -0.6142 C   0  0  0  0  0  0  0  0  0  0  0  0
   -0.5242    2.0123   -1.5323 N   0  0  0  0  0  0  0  0  0  0  0  0
   -1.6376    0.9292   -1.4559 C   0  0  1  0  0  0  0  0  0  0  0  0
   -0.6459   -0.3146   -1.0729 C   0  0  0  0  0  0  0  0  0  0  0  0
   -0.8700   -1.4590   -1.7612 C   0  0  0  0  0  0  0  0  0  0  0  0
   -0.0315   -2.5357   -1.4479 C   0  0  0  0  0  0  0  0  0  0  0  0
    0.9604   -2.3866   -0.4767 C   0  0  0  0  0  0  0  0  0  0  0  0
    1.1181   -1.1798    0.1771 C   0  0  0  0  0  0  0  0  0  0  0  0
    2.1172   -1.0924    1.1288 O   0  0  0  0  0  0  0  0  0  0  0  0
    3.4232   -0.6950    0.8232 C   0  0  0  0  0  0  0  0  0  0  0  0
    4.3770   -0.6273    1.8174 C   0  0  0  0  0  0  0  0  0  0  0  0
    5.6871   -0.2350    1.5455 C   0  0  0  0  0  0  0  0  0  0  0  0
    6.0707    0.0995    0.2655 C   0  0  0  0  0  0  0  0  0  0  0  0
    7.7163    0.5976   -0.1042 Cl  0  0  0  0  0  0  0  0  0  0  0  0
    5.1278    0.0363   -0.7372 C   0  0  0  0  0  0  0  0  0  0  0  0
    3.8266   -0.3564   -0.4507 C   0  0  0  0  0  0  0  0  0  0  0  0
    0.2889   -0.1157   -0.1330 C   0  0  0  0  0  0  0  0  0  0  0  0
   -2.2313    1.1134   -0.0724 N   0  0  0  0  0  0  0  0  0  0  0  0
   -3.2799    0.2123    0.2110 C   0  0  0  0  0  0  0  0  0  0  0  0
   -4.6090    0.5392   -0.0907 C   0  0  0  0  0  0  0  0  0  0  0  0
   -5.6699   -0.2886    0.1584 C   0  0  0  0  0  0  0  0  0  0  0  0
   -5.4396   -1.5095    0.7346 C   0  0  0  0  0  0  0  0  0  0  0  0
   -4.1412   -1.8724    1.0490 C   0  0  0  0  0  0  0  0  0  0  0  0
   -3.9075   -3.4469    1.7847 Cl  0  0  0  0  0  0  0  0  0  0  0  0
   -3.0835   -1.0261    0.7912 C   0  0  0  0  0  0  0  0  0  0  0  0
   -1.8438    2.0381    0.8652 C   0  0  0  0  0  0  0  0  0  0  0  0
   -2.4710    2.1442    2.1698 N   0  0  0  0  0  0  0  0  0  0  0  0
   -0.8725    2.8933    0.6399 N   0  0  0  0  0  0  0  0  0  0  0  0
  1  2  1  0
  2  3  2  0
  3  4  1  0
  4  5  1  1
  5  6  2  0
  6  7  1  0
  7  8  2  0
  8  9  1  0
  9 10  1  0
 10 11  1  0
 11 12  2  0
 12 13  1  0
 13 14  2  0
 14 15  1  0
 14 16  1  0
 16 17  2  0
  9 18  2  0
  4 19  1  0
 19 20  1  0
 20 21  2  0
 21 22  1  0
 22 23  2  0
 23 24  1  0
 24 25  1  0
 24 26  2  0
 19 27  1  0
 27 28  1  0
 27 29  2  0
 29  2  1  0
 18  5  1  0
 26 20  1  0
 17 11  1  0
M  END
>  <zinc_id>  (941) 
ZINC000013559322

>  <ortholog_name>  (941) 
DRTS_PLAFK

>  <gene_name>  (941) 
DRTS_PLAFK

>  <affinity>  (941) 
8.10

>  <chembldocid>  (941) 
17662

>  <title>  (941) 
None

>  <reference.pubmed_id>  (941) 
14736247

>  <reference.doi>  (941) 
None

>  <reference.chembl_id>  (941) 
CHEMBL1138835

>  <reference.journal>  (941) 
J. Med. Chem.

>  <reference.year>  (941) 
2004

$$$$

     RDKit          3D

 29 32  0  0  0  0  0  0  0  0999 V2000
    0.4301   -3.4212    2.4224 N   0  0  0  0  0  0  0  0  0  0  0  0
   -0.3777   -2.4143    1.7012 C   0  0  0  0  0  0  0  0  0  0  0  0
   -0.8285   -2.6330    0.5828 N   0  0  0  0  0  0  0  0  0  0  0  0
   -1.6551   -1.7314   -0.2733 C   0  0  2  0  0  0  0  0  0  0  0  0
   -0.6183   -1.1755   -1.3560 C   0  0  0  0  0  0  0  0  0  0  0  0
   -1.1408   -1.2086   -2.6232 C   0  0  0  0  0  0  0  0  0  0  0  0
   -0.3553   -0.7513   -3.7089 C   0  0  0  0  0  0  0  0  0  0  0  0
    0.9049   -0.2936   -3.4245 C   0  0  0  0  0  0  0  0  0  0  0  0
    1.3847   -0.2778   -2.1536 C   0  0  0  0  0  0  0  0  0  0  0  0
    2.6533    0.1845   -1.8794 O   0  0  0  0  0  0  0  0  0  0  0  0
    3.2122    0.2332   -0.6209 C   0  0  0  0  0  0  0  0  0  0  0  0
    3.9081   -0.8693   -0.2044 C   0  0  0  0  0  0  0  0  0  0  0  0
    4.4923   -0.8932    1.0370 C   0  0  0  0  0  0  0  0  0  0  0  0
    4.4156    0.1540    1.9070 C   0  0  0  0  0  0  0  0  0  0  0  0
    5.1594    0.1234    3.4877 Cl  0  0  0  0  0  0  0  0  0  0  0  0
    3.7025    1.2692    1.4658 C   0  0  0  0  0  0  0  0  0  0  0  0
    3.1148    1.3025    0.2261 C   0  0  0  0  0  0  0  0  0  0  0  0
    0.5855   -0.7311   -1.1375 C   0  0  0  0  0  0  0  0  0  0  0  0
   -1.8385   -0.4484    0.5299 N   0  0  0  0  0  0  0  0  0  0  0  0
   -2.5968    0.5680   -0.0820 C   0  0  0  0  0  0  0  0  0  0  0  0
   -3.1709    0.4738   -1.3373 C   0  0  0  0  0  0  0  0  0  0  0  0
   -3.9071    1.5487   -1.8507 C   0  0  0  0  0  0  0  0  0  0  0  0
   -4.0788    2.7025   -1.1419 C   0  0  0  0  0  0  0  0  0  0  0  0
   -3.5141    2.8095    0.1060 C   0  0  0  0  0  0  0  0  0  0  0  0
   -3.7383    4.2820    1.0000 Cl  0  0  0  0  0  0  0  0  0  0  0  0
   -2.7946    1.7399    0.5901 C   0  0  0  0  0  0  0  0  0  0  0  0
   -1.2940   -0.2754    1.7971 C   0  0  0  0  0  0  0  0  0  0  0  0
   -1.4654    0.9279    2.5517 N   0  0  0  0  0  0  0  0  0  0  0  0
   -0.5893   -1.1950    2.3886 N   0  0  0  0  0  0  0  0  0  0  0  0
  1  2  1  0
  2  3  2  0
  3  4  1  0
  4  5  1  6
  5  6  2  0
  6  7  1  0
  7  8  2  0
  8  9  1  0
  9 10  1  0
 10 11  1  0
 11 12  2  0
 12 13  1  0
 13 14  2  0
 14 15  1  0
 14 16  1  0
 16 17  2  0
  9 18  2  0
  4 19  1  0
 19 20  1  0
 20 21  2  0
 21 22  1  0
 22 23  2  0
 23 24  1  0
 24 25  1  0
 24 26  2  0
 19 27  1  0
 27 28  1  0
 27 29  2  0
 29  2  1  0
 18  5  1  0
 26 20  1  0
 17 11  1  0
M  END
>  <zinc_id>  (942) 
ZINC000013559323

>  <ortholog_name>  (942) 
DRTS_PLAFK

>  <gene_name>  (942) 
DRTS_PLAFK

>  <affinity>  (942) 
8.89

>  <chembldocid>  (942) 
17662

>  <title>  (942) 
None

>  <reference.pubmed_id>  (942) 
14736247

>  <reference.doi>  (942) 
None

>  <reference.chembl_id>  (942) 
CHEMBL1138835

>  <reference.journal>  (942) 
J. Med. Chem.

>  <reference.year>  (942) 
2004

$$$$

     RDKit          3D

 29 32  0  0  0  0  0  0  0  0999 V2000
    0.4301   -3.4212    2.4224 N   0  0  0  0  0  0  0  0  0  0  0  0
   -0.3777   -2.4143    1.7012 C   0  0  0  0  0  0  0  0  0  0  0  0
   -0.8285   -2.6330    0.5828 N   0  0  0  0  0  0  0  0  0  0  0  0
   -1.6551   -1.7314   -0.2733 C   0  0  2  0  0  0  0  0  0  0  0  0
   -0.6183   -1.1755   -1.3560 C   0  0  0  0  0  0  0  0  0  0  0  0
   -1.1408   -1.2086   -2.6232 C   0  0  0  0  0  0  0  0  0  0  0  0
   -0.3553   -0.7513   -3.7089 C   0  0  0  0  0  0  0  0  0  0  0  0
    0.9049   -0.2936   -3.4245 C   0  0  0  0  0  0  0  0  0  0  0  0
    1.3847   -0.2778   -2.1536 C   0  0  0  0  0  0  0  0  0  0  0  0
    2.6533    0.1845   -1.8794 O   0  0  0  0  0  0  0  0  0  0  0  0
    3.2122    0.2332   -0.6209 C   0  0  0  0  0  0  0  0  0  0  0  0
    3.9081   -0.8693   -0.2044 C   0  0  0  0  0  0  0  0  0  0  0  0
    4.4923   -0.8932    1.0370 C   0  0  0  0  0  0  0  0  0  0  0  0
    4.4156    0.1540    1.9070 C   0  0  0  0  0  0  0  0  0  0  0  0
    5.1594    0.1234    3.4877 Cl  0  0  0  0  0  0  0  0  0  0  0  0
    3.7025    1.2692    1.4658 C   0  0  0  0  0  0  0  0  0  0  0  0
    3.1148    1.3025    0.2261 C   0  0  0  0  0  0  0  0  0  0  0  0
    0.5855   -0.7311   -1.1375 C   0  0  0  0  0  0  0  0  0  0  0  0
   -1.8385   -0.4484    0.5299 N   0  0  0  0  0  0  0  0  0  0  0  0
   -2.5968    0.5680   -0.0820 C   0  0  0  0  0  0  0  0  0  0  0  0
   -3.1709    0.4738   -1.3373 C   0  0  0  0  0  0  0  0  0  0  0  0
   -3.9071    1.5487   -1.8507 C   0  0  0  0  0  0  0  0  0  0  0  0
   -4.0788    2.7025   -1.1419 C   0  0  0  0  0  0  0  0  0  0  0  0
   -3.5141    2.8095    0.1060 C   0  0  0  0  0  0  0  0  0  0  0  0
   -3.7383    4.2820    1.0000 Cl  0  0  0  0  0  0  0  0  0  0  0  0
   -2.7946    1.7399    0.5901 C   0  0  0  0  0  0  0  0  0  0  0  0
   -1.2940   -0.2754    1.7971 C   0  0  0  0  0  0  0  0  0  0  0  0
   -1.4654    0.9279    2.5517 N   0  0  0  0  0  0  0  0  0  0  0  0
   -0.5893   -1.1950    2.3886 N   0  0  0  0  0  0  0  0  0  0  0  0
  1  2  1  0
  2  3  2  0
  3  4  1  0
  4  5  1  6
  5  6  2  0
  6  7  1  0
  7  8  2  0
  8  9  1  0
  9 10  1  0
 10 11  1  0
 11 12  2  0
 12 13  1  0
 13 14  2  0
 14 15  1  0
 14 16  1  0
 16 17  2  0
  9 18  2  0
  4 19  1  0
 19 20  1  0
 20 21  2  0
 21 22  1  0
 22 23  2  0
 23 24  1  0
 24 25  1  0
 24 26  2  0
 19 27  1  0
 27 28  1  0
 27 29  2  0
 29  2  1  0
 18  5  1  0
 26 20  1  0
 17 11  1  0
M  END
>  <zinc_id>  (943) 
ZINC000013559323

>  <ortholog_name>  (943) 
DRTS_PLAFK

>  <gene_name>  (943) 
DRTS_PLAFK

>  <affinity>  (943) 
8.72

>  <chembldocid>  (943) 
17662

>  <title>  (943) 
None

>  <reference.pubmed_id>  (943) 
14736247

>  <reference.doi>  (943) 
None

>  <reference.chembl_id>  (943) 
CHEMBL1138835

>  <reference.journal>  (943) 
J. Med. Chem.

>  <reference.year>  (943) 
2004

$$$$

     RDKit          3D

 29 32  0  0  0  0  0  0  0  0999 V2000
    0.4301   -3.4212    2.4224 N   0  0  0  0  0  0  0  0  0  0  0  0
   -0.3777   -2.4143    1.7012 C   0  0  0  0  0  0  0  0  0  0  0  0
   -0.8285   -2.6330    0.5828 N   0  0  0  0  0  0  0  0  0  0  0  0
   -1.6551   -1.7314   -0.2733 C   0  0  2  0  0  0  0  0  0  0  0  0
   -0.6183   -1.1755   -1.3560 C   0  0  0  0  0  0  0  0  0  0  0  0
   -1.1408   -1.2086   -2.6232 C   0  0  0  0  0  0  0  0  0  0  0  0
   -0.3553   -0.7513   -3.7089 C   0  0  0  0  0  0  0  0  0  0  0  0
    0.9049   -0.2936   -3.4245 C   0  0  0  0  0  0  0  0  0  0  0  0
    1.3847   -0.2778   -2.1536 C   0  0  0  0  0  0  0  0  0  0  0  0
    2.6533    0.1845   -1.8794 O   0  0  0  0  0  0  0  0  0  0  0  0
    3.2122    0.2332   -0.6209 C   0  0  0  0  0  0  0  0  0  0  0  0
    3.9081   -0.8693   -0.2044 C   0  0  0  0  0  0  0  0  0  0  0  0
    4.4923   -0.8932    1.0370 C   0  0  0  0  0  0  0  0  0  0  0  0
    4.4156    0.1540    1.9070 C   0  0  0  0  0  0  0  0  0  0  0  0
    5.1594    0.1234    3.4877 Cl  0  0  0  0  0  0  0  0  0  0  0  0
    3.7025    1.2692    1.4658 C   0  0  0  0  0  0  0  0  0  0  0  0
    3.1148    1.3025    0.2261 C   0  0  0  0  0  0  0  0  0  0  0  0
    0.5855   -0.7311   -1.1375 C   0  0  0  0  0  0  0  0  0  0  0  0
   -1.8385   -0.4484    0.5299 N   0  0  0  0  0  0  0  0  0  0  0  0
   -2.5968    0.5680   -0.0820 C   0  0  0  0  0  0  0  0  0  0  0  0
   -3.1709    0.4738   -1.3373 C   0  0  0  0  0  0  0  0  0  0  0  0
   -3.9071    1.5487   -1.8507 C   0  0  0  0  0  0  0  0  0  0  0  0
   -4.0788    2.7025   -1.1419 C   0  0  0  0  0  0  0  0  0  0  0  0
   -3.5141    2.8095    0.1060 C   0  0  0  0  0  0  0  0  0  0  0  0
   -3.7383    4.2820    1.0000 Cl  0  0  0  0  0  0  0  0  0  0  0  0
   -2.7946    1.7399    0.5901 C   0  0  0  0  0  0  0  0  0  0  0  0
   -1.2940   -0.2754    1.7971 C   0  0  0  0  0  0  0  0  0  0  0  0
   -1.4654    0.9279    2.5517 N   0  0  0  0  0  0  0  0  0  0  0  0
   -0.5893   -1.1950    2.3886 N   0  0  0  0  0  0  0  0  0  0  0  0
  1  2  1  0
  2  3  2  0
  3  4  1  0
  4  5  1  6
  5  6  2  0
  6  7  1  0
  7  8  2  0
  8  9  1  0
  9 10  1  0
 10 11  1  0
 11 12  2  0
 12 13  1  0
 13 14  2  0
 14 15  1  0
 14 16  1  0
 16 17  2  0
  9 18  2  0
  4 19  1  0
 19 20  1  0
 20 21  2  0
 21 22  1  0
 22 23  2  0
 23 24  1  0
 24 25  1  0
 24 26  2  0
 19 27  1  0
 27 28  1  0
 27 29  2  0
 29  2  1  0
 18  5  1  0
 26 20  1  0
 17 11  1  0
M  END
>  <zinc_id>  (944) 
ZINC000013559323

>  <ortholog_name>  (944) 
DRTS_PLAFK

>  <gene_name>  (944) 
DRTS_PLAFK

>  <affinity>  (944) 
5.70

>  <chembldocid>  (944) 
17662

>  <title>  (944) 
None

>  <reference.pubmed_id>  (944) 
14736247

>  <reference.doi>  (944) 
None

>  <reference.chembl_id>  (944) 
CHEMBL1138835

>  <reference.journal>  (944) 
J. Med. Chem.

>  <reference.year>  (944) 
2004

$$$$

     RDKit          3D

 29 32  0  0  0  0  0  0  0  0999 V2000
    0.4301   -3.4212    2.4224 N   0  0  0  0  0  0  0  0  0  0  0  0
   -0.3777   -2.4143    1.7012 C   0  0  0  0  0  0  0  0  0  0  0  0
   -0.8285   -2.6330    0.5828 N   0  0  0  0  0  0  0  0  0  0  0  0
   -1.6551   -1.7314   -0.2733 C   0  0  2  0  0  0  0  0  0  0  0  0
   -0.6183   -1.1755   -1.3560 C   0  0  0  0  0  0  0  0  0  0  0  0
   -1.1408   -1.2086   -2.6232 C   0  0  0  0  0  0  0  0  0  0  0  0
   -0.3553   -0.7513   -3.7089 C   0  0  0  0  0  0  0  0  0  0  0  0
    0.9049   -0.2936   -3.4245 C   0  0  0  0  0  0  0  0  0  0  0  0
    1.3847   -0.2778   -2.1536 C   0  0  0  0  0  0  0  0  0  0  0  0
    2.6533    0.1845   -1.8794 O   0  0  0  0  0  0  0  0  0  0  0  0
    3.2122    0.2332   -0.6209 C   0  0  0  0  0  0  0  0  0  0  0  0
    3.9081   -0.8693   -0.2044 C   0  0  0  0  0  0  0  0  0  0  0  0
    4.4923   -0.8932    1.0370 C   0  0  0  0  0  0  0  0  0  0  0  0
    4.4156    0.1540    1.9070 C   0  0  0  0  0  0  0  0  0  0  0  0
    5.1594    0.1234    3.4877 Cl  0  0  0  0  0  0  0  0  0  0  0  0
    3.7025    1.2692    1.4658 C   0  0  0  0  0  0  0  0  0  0  0  0
    3.1148    1.3025    0.2261 C   0  0  0  0  0  0  0  0  0  0  0  0
    0.5855   -0.7311   -1.1375 C   0  0  0  0  0  0  0  0  0  0  0  0
   -1.8385   -0.4484    0.5299 N   0  0  0  0  0  0  0  0  0  0  0  0
   -2.5968    0.5680   -0.0820 C   0  0  0  0  0  0  0  0  0  0  0  0
   -3.1709    0.4738   -1.3373 C   0  0  0  0  0  0  0  0  0  0  0  0
   -3.9071    1.5487   -1.8507 C   0  0  0  0  0  0  0  0  0  0  0  0
   -4.0788    2.7025   -1.1419 C   0  0  0  0  0  0  0  0  0  0  0  0
   -3.5141    2.8095    0.1060 C   0  0  0  0  0  0  0  0  0  0  0  0
   -3.7383    4.2820    1.0000 Cl  0  0  0  0  0  0  0  0  0  0  0  0
   -2.7946    1.7399    0.5901 C   0  0  0  0  0  0  0  0  0  0  0  0
   -1.2940   -0.2754    1.7971 C   0  0  0  0  0  0  0  0  0  0  0  0
   -1.4654    0.9279    2.5517 N   0  0  0  0  0  0  0  0  0  0  0  0
   -0.5893   -1.1950    2.3886 N   0  0  0  0  0  0  0  0  0  0  0  0
  1  2  1  0
  2  3  2  0
  3  4  1  0
  4  5  1  6
  5  6  2  0
  6  7  1  0
  7  8  2  0
  8  9  1  0
  9 10  1  0
 10 11  1  0
 11 12  2  0
 12 13  1  0
 13 14  2  0
 14 15  1  0
 14 16  1  0
 16 17  2  0
  9 18  2  0
  4 19  1  0
 19 20  1  0
 20 21  2  0
 21 22  1  0
 22 23  2  0
 23 24  1  0
 24 25  1  0
 24 26  2  0
 19 27  1  0
 27 28  1  0
 27 29  2  0
 29  2  1  0
 18  5  1  0
 26 20  1  0
 17 11  1  0
M  END
>  <zinc_id>  (945) 
ZINC000013559323

>  <ortholog_name>  (945) 
DRTS_PLAFK

>  <gene_name>  (945) 
DRTS_PLAFK

>  <affinity>  (945) 
5.59

>  <chembldocid>  (945) 
17662

>  <title>  (945) 
None

>  <reference.pubmed_id>  (945) 
14736247

>  <reference.doi>  (945) 
None

>  <reference.chembl_id>  (945) 
CHEMBL1138835

>  <reference.journal>  (945) 
J. Med. Chem.

>  <reference.year>  (945) 
2004

$$$$

     RDKit          3D

 29 32  0  0  0  0  0  0  0  0999 V2000
    0.4301   -3.4212    2.4224 N   0  0  0  0  0  0  0  0  0  0  0  0
   -0.3777   -2.4143    1.7012 C   0  0  0  0  0  0  0  0  0  0  0  0
   -0.8285   -2.6330    0.5828 N   0  0  0  0  0  0  0  0  0  0  0  0
   -1.6551   -1.7314   -0.2733 C   0  0  2  0  0  0  0  0  0  0  0  0
   -0.6183   -1.1755   -1.3560 C   0  0  0  0  0  0  0  0  0  0  0  0
   -1.1408   -1.2086   -2.6232 C   0  0  0  0  0  0  0  0  0  0  0  0
   -0.3553   -0.7513   -3.7089 C   0  0  0  0  0  0  0  0  0  0  0  0
    0.9049   -0.2936   -3.4245 C   0  0  0  0  0  0  0  0  0  0  0  0
    1.3847   -0.2778   -2.1536 C   0  0  0  0  0  0  0  0  0  0  0  0
    2.6533    0.1845   -1.8794 O   0  0  0  0  0  0  0  0  0  0  0  0
    3.2122    0.2332   -0.6209 C   0  0  0  0  0  0  0  0  0  0  0  0
    3.9081   -0.8693   -0.2044 C   0  0  0  0  0  0  0  0  0  0  0  0
    4.4923   -0.8932    1.0370 C   0  0  0  0  0  0  0  0  0  0  0  0
    4.4156    0.1540    1.9070 C   0  0  0  0  0  0  0  0  0  0  0  0
    5.1594    0.1234    3.4877 Cl  0  0  0  0  0  0  0  0  0  0  0  0
    3.7025    1.2692    1.4658 C   0  0  0  0  0  0  0  0  0  0  0  0
    3.1148    1.3025    0.2261 C   0  0  0  0  0  0  0  0  0  0  0  0
    0.5855   -0.7311   -1.1375 C   0  0  0  0  0  0  0  0  0  0  0  0
   -1.8385   -0.4484    0.5299 N   0  0  0  0  0  0  0  0  0  0  0  0
   -2.5968    0.5680   -0.0820 C   0  0  0  0  0  0  0  0  0  0  0  0
   -3.1709    0.4738   -1.3373 C   0  0  0  0  0  0  0  0  0  0  0  0
   -3.9071    1.5487   -1.8507 C   0  0  0  0  0  0  0  0  0  0  0  0
   -4.0788    2.7025   -1.1419 C   0  0  0  0  0  0  0  0  0  0  0  0
   -3.5141    2.8095    0.1060 C   0  0  0  0  0  0  0  0  0  0  0  0
   -3.7383    4.2820    1.0000 Cl  0  0  0  0  0  0  0  0  0  0  0  0
   -2.7946    1.7399    0.5901 C   0  0  0  0  0  0  0  0  0  0  0  0
   -1.2940   -0.2754    1.7971 C   0  0  0  0  0  0  0  0  0  0  0  0
   -1.4654    0.9279    2.5517 N   0  0  0  0  0  0  0  0  0  0  0  0
   -0.5893   -1.1950    2.3886 N   0  0  0  0  0  0  0  0  0  0  0  0
  1  2  1  0
  2  3  2  0
  3  4  1  0
  4  5  1  6
  5  6  2  0
  6  7  1  0
  7  8  2  0
  8  9  1  0
  9 10  1  0
 10 11  1  0
 11 12  2  0
 12 13  1  0
 13 14  2  0
 14 15  1  0
 14 16  1  0
 16 17  2  0
  9 18  2  0
  4 19  1  0
 19 20  1  0
 20 21  2  0
 21 22  1  0
 22 23  2  0
 23 24  1  0
 24 25  1  0
 24 26  2  0
 19 27  1  0
 27 28  1  0
 27 29  2  0
 29  2  1  0
 18  5  1  0
 26 20  1  0
 17 11  1  0
M  END
>  <zinc_id>  (946) 
ZINC000013559323

>  <ortholog_name>  (946) 
DRTS_PLAFK

>  <gene_name>  (946) 
DRTS_PLAFK

>  <affinity>  (946) 
8.46

>  <chembldocid>  (946) 
17662

>  <title>  (946) 
None

>  <reference.pubmed_id>  (946) 
14736247

>  <reference.doi>  (946) 
None

>  <reference.chembl_id>  (946) 
CHEMBL1138835

>  <reference.journal>  (946) 
J. Med. Chem.

>  <reference.year>  (946) 
2004

$$$$

     RDKit          3D

 29 32  0  0  0  0  0  0  0  0999 V2000
    0.4301   -3.4212    2.4224 N   0  0  0  0  0  0  0  0  0  0  0  0
   -0.3777   -2.4143    1.7012 C   0  0  0  0  0  0  0  0  0  0  0  0
   -0.8285   -2.6330    0.5828 N   0  0  0  0  0  0  0  0  0  0  0  0
   -1.6551   -1.7314   -0.2733 C   0  0  2  0  0  0  0  0  0  0  0  0
   -0.6183   -1.1755   -1.3560 C   0  0  0  0  0  0  0  0  0  0  0  0
   -1.1408   -1.2086   -2.6232 C   0  0  0  0  0  0  0  0  0  0  0  0
   -0.3553   -0.7513   -3.7089 C   0  0  0  0  0  0  0  0  0  0  0  0
    0.9049   -0.2936   -3.4245 C   0  0  0  0  0  0  0  0  0  0  0  0
    1.3847   -0.2778   -2.1536 C   0  0  0  0  0  0  0  0  0  0  0  0
    2.6533    0.1845   -1.8794 O   0  0  0  0  0  0  0  0  0  0  0  0
    3.2122    0.2332   -0.6209 C   0  0  0  0  0  0  0  0  0  0  0  0
    3.9081   -0.8693   -0.2044 C   0  0  0  0  0  0  0  0  0  0  0  0
    4.4923   -0.8932    1.0370 C   0  0  0  0  0  0  0  0  0  0  0  0
    4.4156    0.1540    1.9070 C   0  0  0  0  0  0  0  0  0  0  0  0
    5.1594    0.1234    3.4877 Cl  0  0  0  0  0  0  0  0  0  0  0  0
    3.7025    1.2692    1.4658 C   0  0  0  0  0  0  0  0  0  0  0  0
    3.1148    1.3025    0.2261 C   0  0  0  0  0  0  0  0  0  0  0  0
    0.5855   -0.7311   -1.1375 C   0  0  0  0  0  0  0  0  0  0  0  0
   -1.8385   -0.4484    0.5299 N   0  0  0  0  0  0  0  0  0  0  0  0
   -2.5968    0.5680   -0.0820 C   0  0  0  0  0  0  0  0  0  0  0  0
   -3.1709    0.4738   -1.3373 C   0  0  0  0  0  0  0  0  0  0  0  0
   -3.9071    1.5487   -1.8507 C   0  0  0  0  0  0  0  0  0  0  0  0
   -4.0788    2.7025   -1.1419 C   0  0  0  0  0  0  0  0  0  0  0  0
   -3.5141    2.8095    0.1060 C   0  0  0  0  0  0  0  0  0  0  0  0
   -3.7383    4.2820    1.0000 Cl  0  0  0  0  0  0  0  0  0  0  0  0
   -2.7946    1.7399    0.5901 C   0  0  0  0  0  0  0  0  0  0  0  0
   -1.2940   -0.2754    1.7971 C   0  0  0  0  0  0  0  0  0  0  0  0
   -1.4654    0.9279    2.5517 N   0  0  0  0  0  0  0  0  0  0  0  0
   -0.5893   -1.1950    2.3886 N   0  0  0  0  0  0  0  0  0  0  0  0
  1  2  1  0
  2  3  2  0
  3  4  1  0
  4  5  1  6
  5  6  2  0
  6  7  1  0
  7  8  2  0
  8  9  1  0
  9 10  1  0
 10 11  1  0
 11 12  2  0
 12 13  1  0
 13 14  2  0
 14 15  1  0
 14 16  1  0
 16 17  2  0
  9 18  2  0
  4 19  1  0
 19 20  1  0
 20 21  2  0
 21 22  1  0
 22 23  2  0
 23 24  1  0
 24 25  1  0
 24 26  2  0
 19 27  1  0
 27 28  1  0
 27 29  2  0
 29  2  1  0
 18  5  1  0
 26 20  1  0
 17 11  1  0
M  END
>  <zinc_id>  (947) 
ZINC000013559323

>  <ortholog_name>  (947) 
DRTS_PLAFK

>  <gene_name>  (947) 
DRTS_PLAFK

>  <affinity>  (947) 
5.51

>  <chembldocid>  (947) 
17662

>  <title>  (947) 
None

>  <reference.pubmed_id>  (947) 
14736247

>  <reference.doi>  (947) 
None

>  <reference.chembl_id>  (947) 
CHEMBL1138835

>  <reference.journal>  (947) 
J. Med. Chem.

>  <reference.year>  (947) 
2004

$$$$

     RDKit          3D

 29 32  0  0  0  0  0  0  0  0999 V2000
    0.4301   -3.4212    2.4224 N   0  0  0  0  0  0  0  0  0  0  0  0
   -0.3777   -2.4143    1.7012 C   0  0  0  0  0  0  0  0  0  0  0  0
   -0.8285   -2.6330    0.5828 N   0  0  0  0  0  0  0  0  0  0  0  0
   -1.6551   -1.7314   -0.2733 C   0  0  2  0  0  0  0  0  0  0  0  0
   -0.6183   -1.1755   -1.3560 C   0  0  0  0  0  0  0  0  0  0  0  0
   -1.1408   -1.2086   -2.6232 C   0  0  0  0  0  0  0  0  0  0  0  0
   -0.3553   -0.7513   -3.7089 C   0  0  0  0  0  0  0  0  0  0  0  0
    0.9049   -0.2936   -3.4245 C   0  0  0  0  0  0  0  0  0  0  0  0
    1.3847   -0.2778   -2.1536 C   0  0  0  0  0  0  0  0  0  0  0  0
    2.6533    0.1845   -1.8794 O   0  0  0  0  0  0  0  0  0  0  0  0
    3.2122    0.2332   -0.6209 C   0  0  0  0  0  0  0  0  0  0  0  0
    3.9081   -0.8693   -0.2044 C   0  0  0  0  0  0  0  0  0  0  0  0
    4.4923   -0.8932    1.0370 C   0  0  0  0  0  0  0  0  0  0  0  0
    4.4156    0.1540    1.9070 C   0  0  0  0  0  0  0  0  0  0  0  0
    5.1594    0.1234    3.4877 Cl  0  0  0  0  0  0  0  0  0  0  0  0
    3.7025    1.2692    1.4658 C   0  0  0  0  0  0  0  0  0  0  0  0
    3.1148    1.3025    0.2261 C   0  0  0  0  0  0  0  0  0  0  0  0
    0.5855   -0.7311   -1.1375 C   0  0  0  0  0  0  0  0  0  0  0  0
   -1.8385   -0.4484    0.5299 N   0  0  0  0  0  0  0  0  0  0  0  0
   -2.5968    0.5680   -0.0820 C   0  0  0  0  0  0  0  0  0  0  0  0
   -3.1709    0.4738   -1.3373 C   0  0  0  0  0  0  0  0  0  0  0  0
   -3.9071    1.5487   -1.8507 C   0  0  0  0  0  0  0  0  0  0  0  0
   -4.0788    2.7025   -1.1419 C   0  0  0  0  0  0  0  0  0  0  0  0
   -3.5141    2.8095    0.1060 C   0  0  0  0  0  0  0  0  0  0  0  0
   -3.7383    4.2820    1.0000 Cl  0  0  0  0  0  0  0  0  0  0  0  0
   -2.7946    1.7399    0.5901 C   0  0  0  0  0  0  0  0  0  0  0  0
   -1.2940   -0.2754    1.7971 C   0  0  0  0  0  0  0  0  0  0  0  0
   -1.4654    0.9279    2.5517 N   0  0  0  0  0  0  0  0  0  0  0  0
   -0.5893   -1.1950    2.3886 N   0  0  0  0  0  0  0  0  0  0  0  0
  1  2  1  0
  2  3  2  0
  3  4  1  0
  4  5  1  6
  5  6  2  0
  6  7  1  0
  7  8  2  0
  8  9  1  0
  9 10  1  0
 10 11  1  0
 11 12  2  0
 12 13  1  0
 13 14  2  0
 14 15  1  0
 14 16  1  0
 16 17  2  0
  9 18  2  0
  4 19  1  0
 19 20  1  0
 20 21  2  0
 21 22  1  0
 22 23  2  0
 23 24  1  0
 24 25  1  0
 24 26  2  0
 19 27  1  0
 27 28  1  0
 27 29  2  0
 29  2  1  0
 18  5  1  0
 26 20  1  0
 17 11  1  0
M  END
>  <zinc_id>  (948) 
ZINC000013559323

>  <ortholog_name>  (948) 
DRTS_PLAFK

>  <gene_name>  (948) 
DRTS_PLAFK

>  <affinity>  (948) 
5.49

>  <chembldocid>  (948) 
17662

>  <title>  (948) 
None

>  <reference.pubmed_id>  (948) 
14736247

>  <reference.doi>  (948) 
None

>  <reference.chembl_id>  (948) 
CHEMBL1138835

>  <reference.journal>  (948) 
J. Med. Chem.

>  <reference.year>  (948) 
2004

$$$$

     RDKit          3D

 29 32  0  0  0  0  0  0  0  0999 V2000
    0.4301   -3.4212    2.4224 N   0  0  0  0  0  0  0  0  0  0  0  0
   -0.3777   -2.4143    1.7012 C   0  0  0  0  0  0  0  0  0  0  0  0
   -0.8285   -2.6330    0.5828 N   0  0  0  0  0  0  0  0  0  0  0  0
   -1.6551   -1.7314   -0.2733 C   0  0  2  0  0  0  0  0  0  0  0  0
   -0.6183   -1.1755   -1.3560 C   0  0  0  0  0  0  0  0  0  0  0  0
   -1.1408   -1.2086   -2.6232 C   0  0  0  0  0  0  0  0  0  0  0  0
   -0.3553   -0.7513   -3.7089 C   0  0  0  0  0  0  0  0  0  0  0  0
    0.9049   -0.2936   -3.4245 C   0  0  0  0  0  0  0  0  0  0  0  0
    1.3847   -0.2778   -2.1536 C   0  0  0  0  0  0  0  0  0  0  0  0
    2.6533    0.1845   -1.8794 O   0  0  0  0  0  0  0  0  0  0  0  0
    3.2122    0.2332   -0.6209 C   0  0  0  0  0  0  0  0  0  0  0  0
    3.9081   -0.8693   -0.2044 C   0  0  0  0  0  0  0  0  0  0  0  0
    4.4923   -0.8932    1.0370 C   0  0  0  0  0  0  0  0  0  0  0  0
    4.4156    0.1540    1.9070 C   0  0  0  0  0  0  0  0  0  0  0  0
    5.1594    0.1234    3.4877 Cl  0  0  0  0  0  0  0  0  0  0  0  0
    3.7025    1.2692    1.4658 C   0  0  0  0  0  0  0  0  0  0  0  0
    3.1148    1.3025    0.2261 C   0  0  0  0  0  0  0  0  0  0  0  0
    0.5855   -0.7311   -1.1375 C   0  0  0  0  0  0  0  0  0  0  0  0
   -1.8385   -0.4484    0.5299 N   0  0  0  0  0  0  0  0  0  0  0  0
   -2.5968    0.5680   -0.0820 C   0  0  0  0  0  0  0  0  0  0  0  0
   -3.1709    0.4738   -1.3373 C   0  0  0  0  0  0  0  0  0  0  0  0
   -3.9071    1.5487   -1.8507 C   0  0  0  0  0  0  0  0  0  0  0  0
   -4.0788    2.7025   -1.1419 C   0  0  0  0  0  0  0  0  0  0  0  0
   -3.5141    2.8095    0.1060 C   0  0  0  0  0  0  0  0  0  0  0  0
   -3.7383    4.2820    1.0000 Cl  0  0  0  0  0  0  0  0  0  0  0  0
   -2.7946    1.7399    0.5901 C   0  0  0  0  0  0  0  0  0  0  0  0
   -1.2940   -0.2754    1.7971 C   0  0  0  0  0  0  0  0  0  0  0  0
   -1.4654    0.9279    2.5517 N   0  0  0  0  0  0  0  0  0  0  0  0
   -0.5893   -1.1950    2.3886 N   0  0  0  0  0  0  0  0  0  0  0  0
  1  2  1  0
  2  3  2  0
  3  4  1  0
  4  5  1  6
  5  6  2  0
  6  7  1  0
  7  8  2  0
  8  9  1  0
  9 10  1  0
 10 11  1  0
 11 12  2  0
 12 13  1  0
 13 14  2  0
 14 15  1  0
 14 16  1  0
 16 17  2  0
  9 18  2  0
  4 19  1  0
 19 20  1  0
 20 21  2  0
 21 22  1  0
 22 23  2  0
 23 24  1  0
 24 25  1  0
 24 26  2  0
 19 27  1  0
 27 28  1  0
 27 29  2  0
 29  2  1  0
 18  5  1  0
 26 20  1  0
 17 11  1  0
M  END
>  <zinc_id>  (949) 
ZINC000013559323

>  <ortholog_name>  (949) 
DRTS_PLAFK

>  <gene_name>  (949) 
DRTS_PLAFK

>  <affinity>  (949) 
6.41

>  <chembldocid>  (949) 
17662

>  <title>  (949) 
None

>  <reference.pubmed_id>  (949) 
14736247

>  <reference.doi>  (949) 
None

>  <reference.chembl_id>  (949) 
CHEMBL1138835

>  <reference.journal>  (949) 
J. Med. Chem.

>  <reference.year>  (949) 
2004

$$$$

     RDKit          3D

 29 32  0  0  0  0  0  0  0  0999 V2000
    0.4301   -3.4212    2.4224 N   0  0  0  0  0  0  0  0  0  0  0  0
   -0.3777   -2.4143    1.7012 C   0  0  0  0  0  0  0  0  0  0  0  0
   -0.8285   -2.6330    0.5828 N   0  0  0  0  0  0  0  0  0  0  0  0
   -1.6551   -1.7314   -0.2733 C   0  0  2  0  0  0  0  0  0  0  0  0
   -0.6183   -1.1755   -1.3560 C   0  0  0  0  0  0  0  0  0  0  0  0
   -1.1408   -1.2086   -2.6232 C   0  0  0  0  0  0  0  0  0  0  0  0
   -0.3553   -0.7513   -3.7089 C   0  0  0  0  0  0  0  0  0  0  0  0
    0.9049   -0.2936   -3.4245 C   0  0  0  0  0  0  0  0  0  0  0  0
    1.3847   -0.2778   -2.1536 C   0  0  0  0  0  0  0  0  0  0  0  0
    2.6533    0.1845   -1.8794 O   0  0  0  0  0  0  0  0  0  0  0  0
    3.2122    0.2332   -0.6209 C   0  0  0  0  0  0  0  0  0  0  0  0
    3.9081   -0.8693   -0.2044 C   0  0  0  0  0  0  0  0  0  0  0  0
    4.4923   -0.8932    1.0370 C   0  0  0  0  0  0  0  0  0  0  0  0
    4.4156    0.1540    1.9070 C   0  0  0  0  0  0  0  0  0  0  0  0
    5.1594    0.1234    3.4877 Cl  0  0  0  0  0  0  0  0  0  0  0  0
    3.7025    1.2692    1.4658 C   0  0  0  0  0  0  0  0  0  0  0  0
    3.1148    1.3025    0.2261 C   0  0  0  0  0  0  0  0  0  0  0  0
    0.5855   -0.7311   -1.1375 C   0  0  0  0  0  0  0  0  0  0  0  0
   -1.8385   -0.4484    0.5299 N   0  0  0  0  0  0  0  0  0  0  0  0
   -2.5968    0.5680   -0.0820 C   0  0  0  0  0  0  0  0  0  0  0  0
   -3.1709    0.4738   -1.3373 C   0  0  0  0  0  0  0  0  0  0  0  0
   -3.9071    1.5487   -1.8507 C   0  0  0  0  0  0  0  0  0  0  0  0
   -4.0788    2.7025   -1.1419 C   0  0  0  0  0  0  0  0  0  0  0  0
   -3.5141    2.8095    0.1060 C   0  0  0  0  0  0  0  0  0  0  0  0
   -3.7383    4.2820    1.0000 Cl  0  0  0  0  0  0  0  0  0  0  0  0
   -2.7946    1.7399    0.5901 C   0  0  0  0  0  0  0  0  0  0  0  0
   -1.2940   -0.2754    1.7971 C   0  0  0  0  0  0  0  0  0  0  0  0
   -1.4654    0.9279    2.5517 N   0  0  0  0  0  0  0  0  0  0  0  0
   -0.5893   -1.1950    2.3886 N   0  0  0  0  0  0  0  0  0  0  0  0
  1  2  1  0
  2  3  2  0
  3  4  1  0
  4  5  1  6
  5  6  2  0
  6  7  1  0
  7  8  2  0
  8  9  1  0
  9 10  1  0
 10 11  1  0
 11 12  2  0
 12 13  1  0
 13 14  2  0
 14 15  1  0
 14 16  1  0
 16 17  2  0
  9 18  2  0
  4 19  1  0
 19 20  1  0
 20 21  2  0
 21 22  1  0
 22 23  2  0
 23 24  1  0
 24 25  1  0
 24 26  2  0
 19 27  1  0
 27 28  1  0
 27 29  2  0
 29  2  1  0
 18  5  1  0
 26 20  1  0
 17 11  1  0
M  END
>  <zinc_id>  (950) 
ZINC000013559323

>  <ortholog_name>  (950) 
DRTS_PLAFK

>  <gene_name>  (950) 
DRTS_PLAFK

>  <affinity>  (950) 
5.41

>  <chembldocid>  (950) 
17662

>  <title>  (950) 
None

>  <reference.pubmed_id>  (950) 
14736247

>  <reference.doi>  (950) 
None

>  <reference.chembl_id>  (950) 
CHEMBL1138835

>  <reference.journal>  (950) 
J. Med. Chem.

>  <reference.year>  (950) 
2004

$$$$

     RDKit          3D

 29 32  0  0  0  0  0  0  0  0999 V2000
    0.4301   -3.4212    2.4224 N   0  0  0  0  0  0  0  0  0  0  0  0
   -0.3777   -2.4143    1.7012 C   0  0  0  0  0  0  0  0  0  0  0  0
   -0.8285   -2.6330    0.5828 N   0  0  0  0  0  0  0  0  0  0  0  0
   -1.6551   -1.7314   -0.2733 C   0  0  2  0  0  0  0  0  0  0  0  0
   -0.6183   -1.1755   -1.3560 C   0  0  0  0  0  0  0  0  0  0  0  0
   -1.1408   -1.2086   -2.6232 C   0  0  0  0  0  0  0  0  0  0  0  0
   -0.3553   -0.7513   -3.7089 C   0  0  0  0  0  0  0  0  0  0  0  0
    0.9049   -0.2936   -3.4245 C   0  0  0  0  0  0  0  0  0  0  0  0
    1.3847   -0.2778   -2.1536 C   0  0  0  0  0  0  0  0  0  0  0  0
    2.6533    0.1845   -1.8794 O   0  0  0  0  0  0  0  0  0  0  0  0
    3.2122    0.2332   -0.6209 C   0  0  0  0  0  0  0  0  0  0  0  0
    3.9081   -0.8693   -0.2044 C   0  0  0  0  0  0  0  0  0  0  0  0
    4.4923   -0.8932    1.0370 C   0  0  0  0  0  0  0  0  0  0  0  0
    4.4156    0.1540    1.9070 C   0  0  0  0  0  0  0  0  0  0  0  0
    5.1594    0.1234    3.4877 Cl  0  0  0  0  0  0  0  0  0  0  0  0
    3.7025    1.2692    1.4658 C   0  0  0  0  0  0  0  0  0  0  0  0
    3.1148    1.3025    0.2261 C   0  0  0  0  0  0  0  0  0  0  0  0
    0.5855   -0.7311   -1.1375 C   0  0  0  0  0  0  0  0  0  0  0  0
   -1.8385   -0.4484    0.5299 N   0  0  0  0  0  0  0  0  0  0  0  0
   -2.5968    0.5680   -0.0820 C   0  0  0  0  0  0  0  0  0  0  0  0
   -3.1709    0.4738   -1.3373 C   0  0  0  0  0  0  0  0  0  0  0  0
   -3.9071    1.5487   -1.8507 C   0  0  0  0  0  0  0  0  0  0  0  0
   -4.0788    2.7025   -1.1419 C   0  0  0  0  0  0  0  0  0  0  0  0
   -3.5141    2.8095    0.1060 C   0  0  0  0  0  0  0  0  0  0  0  0
   -3.7383    4.2820    1.0000 Cl  0  0  0  0  0  0  0  0  0  0  0  0
   -2.7946    1.7399    0.5901 C   0  0  0  0  0  0  0  0  0  0  0  0
   -1.2940   -0.2754    1.7971 C   0  0  0  0  0  0  0  0  0  0  0  0
   -1.4654    0.9279    2.5517 N   0  0  0  0  0  0  0  0  0  0  0  0
   -0.5893   -1.1950    2.3886 N   0  0  0  0  0  0  0  0  0  0  0  0
  1  2  1  0
  2  3  2  0
  3  4  1  0
  4  5  1  6
  5  6  2  0
  6  7  1  0
  7  8  2  0
  8  9  1  0
  9 10  1  0
 10 11  1  0
 11 12  2  0
 12 13  1  0
 13 14  2  0
 14 15  1  0
 14 16  1  0
 16 17  2  0
  9 18  2  0
  4 19  1  0
 19 20  1  0
 20 21  2  0
 21 22  1  0
 22 23  2  0
 23 24  1  0
 24 25  1  0
 24 26  2  0
 19 27  1  0
 27 28  1  0
 27 29  2  0
 29  2  1  0
 18  5  1  0
 26 20  1  0
 17 11  1  0
M  END
>  <zinc_id>  (951) 
ZINC000013559323

>  <ortholog_name>  (951) 
DRTS_PLAFK

>  <gene_name>  (951) 
DRTS_PLAFK

>  <affinity>  (951) 
8.29

>  <chembldocid>  (951) 
17662

>  <title>  (951) 
None

>  <reference.pubmed_id>  (951) 
14736247

>  <reference.doi>  (951) 
None

>  <reference.chembl_id>  (951) 
CHEMBL1138835

>  <reference.journal>  (951) 
J. Med. Chem.

>  <reference.year>  (951) 
2004

$$$$

     RDKit          3D

 29 32  0  0  0  0  0  0  0  0999 V2000
    0.4301   -3.4212    2.4224 N   0  0  0  0  0  0  0  0  0  0  0  0
   -0.3777   -2.4143    1.7012 C   0  0  0  0  0  0  0  0  0  0  0  0
   -0.8285   -2.6330    0.5828 N   0  0  0  0  0  0  0  0  0  0  0  0
   -1.6551   -1.7314   -0.2733 C   0  0  2  0  0  0  0  0  0  0  0  0
   -0.6183   -1.1755   -1.3560 C   0  0  0  0  0  0  0  0  0  0  0  0
   -1.1408   -1.2086   -2.6232 C   0  0  0  0  0  0  0  0  0  0  0  0
   -0.3553   -0.7513   -3.7089 C   0  0  0  0  0  0  0  0  0  0  0  0
    0.9049   -0.2936   -3.4245 C   0  0  0  0  0  0  0  0  0  0  0  0
    1.3847   -0.2778   -2.1536 C   0  0  0  0  0  0  0  0  0  0  0  0
    2.6533    0.1845   -1.8794 O   0  0  0  0  0  0  0  0  0  0  0  0
    3.2122    0.2332   -0.6209 C   0  0  0  0  0  0  0  0  0  0  0  0
    3.9081   -0.8693   -0.2044 C   0  0  0  0  0  0  0  0  0  0  0  0
    4.4923   -0.8932    1.0370 C   0  0  0  0  0  0  0  0  0  0  0  0
    4.4156    0.1540    1.9070 C   0  0  0  0  0  0  0  0  0  0  0  0
    5.1594    0.1234    3.4877 Cl  0  0  0  0  0  0  0  0  0  0  0  0
    3.7025    1.2692    1.4658 C   0  0  0  0  0  0  0  0  0  0  0  0
    3.1148    1.3025    0.2261 C   0  0  0  0  0  0  0  0  0  0  0  0
    0.5855   -0.7311   -1.1375 C   0  0  0  0  0  0  0  0  0  0  0  0
   -1.8385   -0.4484    0.5299 N   0  0  0  0  0  0  0  0  0  0  0  0
   -2.5968    0.5680   -0.0820 C   0  0  0  0  0  0  0  0  0  0  0  0
   -3.1709    0.4738   -1.3373 C   0  0  0  0  0  0  0  0  0  0  0  0
   -3.9071    1.5487   -1.8507 C   0  0  0  0  0  0  0  0  0  0  0  0
   -4.0788    2.7025   -1.1419 C   0  0  0  0  0  0  0  0  0  0  0  0
   -3.5141    2.8095    0.1060 C   0  0  0  0  0  0  0  0  0  0  0  0
   -3.7383    4.2820    1.0000 Cl  0  0  0  0  0  0  0  0  0  0  0  0
   -2.7946    1.7399    0.5901 C   0  0  0  0  0  0  0  0  0  0  0  0
   -1.2940   -0.2754    1.7971 C   0  0  0  0  0  0  0  0  0  0  0  0
   -1.4654    0.9279    2.5517 N   0  0  0  0  0  0  0  0  0  0  0  0
   -0.5893   -1.1950    2.3886 N   0  0  0  0  0  0  0  0  0  0  0  0
  1  2  1  0
  2  3  2  0
  3  4  1  0
  4  5  1  6
  5  6  2  0
  6  7  1  0
  7  8  2  0
  8  9  1  0
  9 10  1  0
 10 11  1  0
 11 12  2  0
 12 13  1  0
 13 14  2  0
 14 15  1  0
 14 16  1  0
 16 17  2  0
  9 18  2  0
  4 19  1  0
 19 20  1  0
 20 21  2  0
 21 22  1  0
 22 23  2  0
 23 24  1  0
 24 25  1  0
 24 26  2  0
 19 27  1  0
 27 28  1  0
 27 29  2  0
 29  2  1  0
 18  5  1  0
 26 20  1  0
 17 11  1  0
M  END
>  <zinc_id>  (952) 
ZINC000013559323

>  <ortholog_name>  (952) 
DRTS_PLAFK

>  <gene_name>  (952) 
DRTS_PLAFK

>  <affinity>  (952) 
8.10

>  <chembldocid>  (952) 
17662

>  <title>  (952) 
None

>  <reference.pubmed_id>  (952) 
14736247

>  <reference.doi>  (952) 
None

>  <reference.chembl_id>  (952) 
CHEMBL1138835

>  <reference.journal>  (952) 
J. Med. Chem.

>  <reference.year>  (952) 
2004

$$$$

     RDKit          3D

 25 27  0  0  0  0  0  0  0  0999 V2000
    5.8962    1.3447    0.5611 C   0  0  0  0  0  0  0  0  0  0  0  0
    4.7654    2.2896    0.9066 C   0  0  0  0  0  0  0  0  0  0  0  0
    4.1369    2.7962   -0.3500 C   0  0  0  0  0  0  0  0  0  0  0  0
    3.6004    1.7799   -1.1618 O   0  0  0  0  0  0  0  0  0  0  0  0
    2.5900    0.9612   -0.6398 C   0  0  0  0  0  0  0  0  0  0  0  0
    2.0288   -0.0475   -1.3870 C   0  0  0  0  0  0  0  0  0  0  0  0
    1.0328   -0.8547   -0.8724 C   0  0  0  0  0  0  0  0  0  0  0  0
    0.6342   -0.6240    0.3702 C   0  0  0  0  0  0  0  0  0  0  0  0
   -0.5335   -1.5417    1.0268 C   0  0  2  0  0  0  0  0  0  0  0  0
    0.0122   -2.8749    0.5529 N   0  0  0  0  0  0  0  0  0  0  0  0
   -0.2871   -3.5649   -0.4071 C   0  0  0  0  0  0  0  0  0  0  0  0
    0.3830   -4.8254   -0.6657 N   0  0  0  0  0  0  0  0  0  0  0  0
   -1.2931   -3.0834   -1.2300 N   0  0  0  0  0  0  0  0  0  0  0  0
   -1.9197   -2.0085   -1.0774 C   0  0  0  0  0  0  0  0  0  0  0  0
   -2.9323   -1.6385   -2.0041 N   0  0  0  0  0  0  0  0  0  0  0  0
   -1.6449   -1.1810   -0.0295 N   0  0  0  0  0  0  0  0  0  0  0  0
   -2.2958    0.0667    0.2415 C   0  0  0  0  0  0  0  0  0  0  0  0
   -3.4195    0.0863    1.0338 C   0  0  0  0  0  0  0  0  0  0  0  0
   -4.0922    1.2609    1.3313 C   0  0  0  0  0  0  0  0  0  0  0  0
   -3.6440    2.4501    0.8334 C   0  0  0  0  0  0  0  0  0  0  0  0
   -2.5068    2.4583    0.0274 C   0  0  0  0  0  0  0  0  0  0  0  0
   -1.9398    3.9902   -0.6066 Cl  0  0  0  0  0  0  0  0  0  0  0  0
   -1.8423    1.2575   -0.2603 C   0  0  0  0  0  0  0  0  0  0  0  0
    1.1381    0.3533    1.1752 C   0  0  0  0  0  0  0  0  0  0  0  0
    2.1329    1.1497    0.6431 C   0  0  0  0  0  0  0  0  0  0  0  0
  1  2  1  0
  2  3  1  0
  3  4  1  0
  4  5  1  0
  5  6  2  0
  6  7  1  0
  7  8  2  0
  9  8  1  6
  9 10  1  0
 10 11  2  0
 11 12  1  0
 11 13  1  0
 13 14  2  0
 14 15  1  0
 14 16  1  0
 16 17  1  0
 17 18  2  0
 18 19  1  0
 19 20  2  0
 20 21  1  0
 21 22  1  0
 21 23  2  0
  8 24  1  0
 24 25  2  0
 25  5  1  0
 16  9  1  0
 23 17  1  0
M  END
>  <zinc_id>  (953) 
ZINC000013559324

>  <ortholog_name>  (953) 
DRTS_PLAFK

>  <gene_name>  (953) 
DRTS_PLAFK

>  <affinity>  (953) 
9.30

>  <chembldocid>  (953) 
17662

>  <title>  (953) 
None

>  <reference.pubmed_id>  (953) 
14736247

>  <reference.doi>  (953) 
None

>  <reference.chembl_id>  (953) 
CHEMBL1138835

>  <reference.journal>  (953) 
J. Med. Chem.

>  <reference.year>  (953) 
2004

$$$$

     RDKit          3D

 25 27  0  0  0  0  0  0  0  0999 V2000
    5.8962    1.3447    0.5611 C   0  0  0  0  0  0  0  0  0  0  0  0
    4.7654    2.2896    0.9066 C   0  0  0  0  0  0  0  0  0  0  0  0
    4.1369    2.7962   -0.3500 C   0  0  0  0  0  0  0  0  0  0  0  0
    3.6004    1.7799   -1.1618 O   0  0  0  0  0  0  0  0  0  0  0  0
    2.5900    0.9612   -0.6398 C   0  0  0  0  0  0  0  0  0  0  0  0
    2.0288   -0.0475   -1.3870 C   0  0  0  0  0  0  0  0  0  0  0  0
    1.0328   -0.8547   -0.8724 C   0  0  0  0  0  0  0  0  0  0  0  0
    0.6342   -0.6240    0.3702 C   0  0  0  0  0  0  0  0  0  0  0  0
   -0.5335   -1.5417    1.0268 C   0  0  2  0  0  0  0  0  0  0  0  0
    0.0122   -2.8749    0.5529 N   0  0  0  0  0  0  0  0  0  0  0  0
   -0.2871   -3.5649   -0.4071 C   0  0  0  0  0  0  0  0  0  0  0  0
    0.3830   -4.8254   -0.6657 N   0  0  0  0  0  0  0  0  0  0  0  0
   -1.2931   -3.0834   -1.2300 N   0  0  0  0  0  0  0  0  0  0  0  0
   -1.9197   -2.0085   -1.0774 C   0  0  0  0  0  0  0  0  0  0  0  0
   -2.9323   -1.6385   -2.0041 N   0  0  0  0  0  0  0  0  0  0  0  0
   -1.6449   -1.1810   -0.0295 N   0  0  0  0  0  0  0  0  0  0  0  0
   -2.2958    0.0667    0.2415 C   0  0  0  0  0  0  0  0  0  0  0  0
   -3.4195    0.0863    1.0338 C   0  0  0  0  0  0  0  0  0  0  0  0
   -4.0922    1.2609    1.3313 C   0  0  0  0  0  0  0  0  0  0  0  0
   -3.6440    2.4501    0.8334 C   0  0  0  0  0  0  0  0  0  0  0  0
   -2.5068    2.4583    0.0274 C   0  0  0  0  0  0  0  0  0  0  0  0
   -1.9398    3.9902   -0.6066 Cl  0  0  0  0  0  0  0  0  0  0  0  0
   -1.8423    1.2575   -0.2603 C   0  0  0  0  0  0  0  0  0  0  0  0
    1.1381    0.3533    1.1752 C   0  0  0  0  0  0  0  0  0  0  0  0
    2.1329    1.1497    0.6431 C   0  0  0  0  0  0  0  0  0  0  0  0
  1  2  1  0
  2  3  1  0
  3  4  1  0
  4  5  1  0
  5  6  2  0
  6  7  1  0
  7  8  2  0
  9  8  1  6
  9 10  1  0
 10 11  2  0
 11 12  1  0
 11 13  1  0
 13 14  2  0
 14 15  1  0
 14 16  1  0
 16 17  1  0
 17 18  2  0
 18 19  1  0
 19 20  2  0
 20 21  1  0
 21 22  1  0
 21 23  2  0
  8 24  1  0
 24 25  2  0
 25  5  1  0
 16  9  1  0
 23 17  1  0
M  END
>  <zinc_id>  (954) 
ZINC000013559324

>  <ortholog_name>  (954) 
DRTS_PLAFK

>  <gene_name>  (954) 
DRTS_PLAFK

>  <affinity>  (954) 
6.00

>  <chembldocid>  (954) 
17662

>  <title>  (954) 
None

>  <reference.pubmed_id>  (954) 
14736247

>  <reference.doi>  (954) 
None

>  <reference.chembl_id>  (954) 
CHEMBL1138835

>  <reference.journal>  (954) 
J. Med. Chem.

>  <reference.year>  (954) 
2004

$$$$

     RDKit          3D

 25 27  0  0  0  0  0  0  0  0999 V2000
    5.8962    1.3447    0.5611 C   0  0  0  0  0  0  0  0  0  0  0  0
    4.7654    2.2896    0.9066 C   0  0  0  0  0  0  0  0  0  0  0  0
    4.1369    2.7962   -0.3500 C   0  0  0  0  0  0  0  0  0  0  0  0
    3.6004    1.7799   -1.1618 O   0  0  0  0  0  0  0  0  0  0  0  0
    2.5900    0.9612   -0.6398 C   0  0  0  0  0  0  0  0  0  0  0  0
    2.0288   -0.0475   -1.3870 C   0  0  0  0  0  0  0  0  0  0  0  0
    1.0328   -0.8547   -0.8724 C   0  0  0  0  0  0  0  0  0  0  0  0
    0.6342   -0.6240    0.3702 C   0  0  0  0  0  0  0  0  0  0  0  0
   -0.5335   -1.5417    1.0268 C   0  0  2  0  0  0  0  0  0  0  0  0
    0.0122   -2.8749    0.5529 N   0  0  0  0  0  0  0  0  0  0  0  0
   -0.2871   -3.5649   -0.4071 C   0  0  0  0  0  0  0  0  0  0  0  0
    0.3830   -4.8254   -0.6657 N   0  0  0  0  0  0  0  0  0  0  0  0
   -1.2931   -3.0834   -1.2300 N   0  0  0  0  0  0  0  0  0  0  0  0
   -1.9197   -2.0085   -1.0774 C   0  0  0  0  0  0  0  0  0  0  0  0
   -2.9323   -1.6385   -2.0041 N   0  0  0  0  0  0  0  0  0  0  0  0
   -1.6449   -1.1810   -0.0295 N   0  0  0  0  0  0  0  0  0  0  0  0
   -2.2958    0.0667    0.2415 C   0  0  0  0  0  0  0  0  0  0  0  0
   -3.4195    0.0863    1.0338 C   0  0  0  0  0  0  0  0  0  0  0  0
   -4.0922    1.2609    1.3313 C   0  0  0  0  0  0  0  0  0  0  0  0
   -3.6440    2.4501    0.8334 C   0  0  0  0  0  0  0  0  0  0  0  0
   -2.5068    2.4583    0.0274 C   0  0  0  0  0  0  0  0  0  0  0  0
   -1.9398    3.9902   -0.6066 Cl  0  0  0  0  0  0  0  0  0  0  0  0
   -1.8423    1.2575   -0.2603 C   0  0  0  0  0  0  0  0  0  0  0  0
    1.1381    0.3533    1.1752 C   0  0  0  0  0  0  0  0  0  0  0  0
    2.1329    1.1497    0.6431 C   0  0  0  0  0  0  0  0  0  0  0  0
  1  2  1  0
  2  3  1  0
  3  4  1  0
  4  5  1  0
  5  6  2  0
  6  7  1  0
  7  8  2  0
  9  8  1  6
  9 10  1  0
 10 11  2  0
 11 12  1  0
 11 13  1  0
 13 14  2  0
 14 15  1  0
 14 16  1  0
 16 17  1  0
 17 18  2  0
 18 19  1  0
 19 20  2  0
 20 21  1  0
 21 22  1  0
 21 23  2  0
  8 24  1  0
 24 25  2  0
 25  5  1  0
 16  9  1  0
 23 17  1  0
M  END
>  <zinc_id>  (955) 
ZINC000013559324

>  <ortholog_name>  (955) 
DRTS_PLAFK

>  <gene_name>  (955) 
DRTS_PLAFK

>  <affinity>  (955) 
8.68

>  <chembldocid>  (955) 
17662

>  <title>  (955) 
None

>  <reference.pubmed_id>  (955) 
14736247

>  <reference.doi>  (955) 
None

>  <reference.chembl_id>  (955) 
CHEMBL1138835

>  <reference.journal>  (955) 
J. Med. Chem.

>  <reference.year>  (955) 
2004

$$$$

     RDKit          3D

 25 27  0  0  0  0  0  0  0  0999 V2000
    5.8962    1.3447    0.5611 C   0  0  0  0  0  0  0  0  0  0  0  0
    4.7654    2.2896    0.9066 C   0  0  0  0  0  0  0  0  0  0  0  0
    4.1369    2.7962   -0.3500 C   0  0  0  0  0  0  0  0  0  0  0  0
    3.6004    1.7799   -1.1618 O   0  0  0  0  0  0  0  0  0  0  0  0
    2.5900    0.9612   -0.6398 C   0  0  0  0  0  0  0  0  0  0  0  0
    2.0288   -0.0475   -1.3870 C   0  0  0  0  0  0  0  0  0  0  0  0
    1.0328   -0.8547   -0.8724 C   0  0  0  0  0  0  0  0  0  0  0  0
    0.6342   -0.6240    0.3702 C   0  0  0  0  0  0  0  0  0  0  0  0
   -0.5335   -1.5417    1.0268 C   0  0  2  0  0  0  0  0  0  0  0  0
    0.0122   -2.8749    0.5529 N   0  0  0  0  0  0  0  0  0  0  0  0
   -0.2871   -3.5649   -0.4071 C   0  0  0  0  0  0  0  0  0  0  0  0
    0.3830   -4.8254   -0.6657 N   0  0  0  0  0  0  0  0  0  0  0  0
   -1.2931   -3.0834   -1.2300 N   0  0  0  0  0  0  0  0  0  0  0  0
   -1.9197   -2.0085   -1.0774 C   0  0  0  0  0  0  0  0  0  0  0  0
   -2.9323   -1.6385   -2.0041 N   0  0  0  0  0  0  0  0  0  0  0  0
   -1.6449   -1.1810   -0.0295 N   0  0  0  0  0  0  0  0  0  0  0  0
   -2.2958    0.0667    0.2415 C   0  0  0  0  0  0  0  0  0  0  0  0
   -3.4195    0.0863    1.0338 C   0  0  0  0  0  0  0  0  0  0  0  0
   -4.0922    1.2609    1.3313 C   0  0  0  0  0  0  0  0  0  0  0  0
   -3.6440    2.4501    0.8334 C   0  0  0  0  0  0  0  0  0  0  0  0
   -2.5068    2.4583    0.0274 C   0  0  0  0  0  0  0  0  0  0  0  0
   -1.9398    3.9902   -0.6066 Cl  0  0  0  0  0  0  0  0  0  0  0  0
   -1.8423    1.2575   -0.2603 C   0  0  0  0  0  0  0  0  0  0  0  0
    1.1381    0.3533    1.1752 C   0  0  0  0  0  0  0  0  0  0  0  0
    2.1329    1.1497    0.6431 C   0  0  0  0  0  0  0  0  0  0  0  0
  1  2  1  0
  2  3  1  0
  3  4  1  0
  4  5  1  0
  5  6  2  0
  6  7  1  0
  7  8  2  0
  9  8  1  6
  9 10  1  0
 10 11  2  0
 11 12  1  0
 11 13  1  0
 13 14  2  0
 14 15  1  0
 14 16  1  0
 16 17  1  0
 17 18  2  0
 18 19  1  0
 19 20  2  0
 20 21  1  0
 21 22  1  0
 21 23  2  0
  8 24  1  0
 24 25  2  0
 25  5  1  0
 16  9  1  0
 23 17  1  0
M  END
>  <zinc_id>  (956) 
ZINC000013559324

>  <ortholog_name>  (956) 
DRTS_PLAFK

>  <gene_name>  (956) 
DRTS_PLAFK

>  <affinity>  (956) 
8.57

>  <chembldocid>  (956) 
17662

>  <title>  (956) 
None

>  <reference.pubmed_id>  (956) 
14736247

>  <reference.doi>  (956) 
None

>  <reference.chembl_id>  (956) 
CHEMBL1138835

>  <reference.journal>  (956) 
J. Med. Chem.

>  <reference.year>  (956) 
2004

$$$$

     RDKit          3D

 25 27  0  0  0  0  0  0  0  0999 V2000
    5.8962    1.3447    0.5611 C   0  0  0  0  0  0  0  0  0  0  0  0
    4.7654    2.2896    0.9066 C   0  0  0  0  0  0  0  0  0  0  0  0
    4.1369    2.7962   -0.3500 C   0  0  0  0  0  0  0  0  0  0  0  0
    3.6004    1.7799   -1.1618 O   0  0  0  0  0  0  0  0  0  0  0  0
    2.5900    0.9612   -0.6398 C   0  0  0  0  0  0  0  0  0  0  0  0
    2.0288   -0.0475   -1.3870 C   0  0  0  0  0  0  0  0  0  0  0  0
    1.0328   -0.8547   -0.8724 C   0  0  0  0  0  0  0  0  0  0  0  0
    0.6342   -0.6240    0.3702 C   0  0  0  0  0  0  0  0  0  0  0  0
   -0.5335   -1.5417    1.0268 C   0  0  2  0  0  0  0  0  0  0  0  0
    0.0122   -2.8749    0.5529 N   0  0  0  0  0  0  0  0  0  0  0  0
   -0.2871   -3.5649   -0.4071 C   0  0  0  0  0  0  0  0  0  0  0  0
    0.3830   -4.8254   -0.6657 N   0  0  0  0  0  0  0  0  0  0  0  0
   -1.2931   -3.0834   -1.2300 N   0  0  0  0  0  0  0  0  0  0  0  0
   -1.9197   -2.0085   -1.0774 C   0  0  0  0  0  0  0  0  0  0  0  0
   -2.9323   -1.6385   -2.0041 N   0  0  0  0  0  0  0  0  0  0  0  0
   -1.6449   -1.1810   -0.0295 N   0  0  0  0  0  0  0  0  0  0  0  0
   -2.2958    0.0667    0.2415 C   0  0  0  0  0  0  0  0  0  0  0  0
   -3.4195    0.0863    1.0338 C   0  0  0  0  0  0  0  0  0  0  0  0
   -4.0922    1.2609    1.3313 C   0  0  0  0  0  0  0  0  0  0  0  0
   -3.6440    2.4501    0.8334 C   0  0  0  0  0  0  0  0  0  0  0  0
   -2.5068    2.4583    0.0274 C   0  0  0  0  0  0  0  0  0  0  0  0
   -1.9398    3.9902   -0.6066 Cl  0  0  0  0  0  0  0  0  0  0  0  0
   -1.8423    1.2575   -0.2603 C   0  0  0  0  0  0  0  0  0  0  0  0
    1.1381    0.3533    1.1752 C   0  0  0  0  0  0  0  0  0  0  0  0
    2.1329    1.1497    0.6431 C   0  0  0  0  0  0  0  0  0  0  0  0
  1  2  1  0
  2  3  1  0
  3  4  1  0
  4  5  1  0
  5  6  2  0
  6  7  1  0
  7  8  2  0
  9  8  1  6
  9 10  1  0
 10 11  2  0
 11 12  1  0
 11 13  1  0
 13 14  2  0
 14 15  1  0
 14 16  1  0
 16 17  1  0
 17 18  2  0
 18 19  1  0
 19 20  2  0
 20 21  1  0
 21 22  1  0
 21 23  2  0
  8 24  1  0
 24 25  2  0
 25  5  1  0
 16  9  1  0
 23 17  1  0
M  END
>  <zinc_id>  (957) 
ZINC000013559324

>  <ortholog_name>  (957) 
DRTS_PLAFK

>  <gene_name>  (957) 
DRTS_PLAFK

>  <affinity>  (957) 
6.60

>  <chembldocid>  (957) 
17662

>  <title>  (957) 
None

>  <reference.pubmed_id>  (957) 
14736247

>  <reference.doi>  (957) 
None

>  <reference.chembl_id>  (957) 
CHEMBL1138835

>  <reference.journal>  (957) 
J. Med. Chem.

>  <reference.year>  (957) 
2004

$$$$

     RDKit          3D

 25 27  0  0  0  0  0  0  0  0999 V2000
    5.8962    1.3447    0.5611 C   0  0  0  0  0  0  0  0  0  0  0  0
    4.7654    2.2896    0.9066 C   0  0  0  0  0  0  0  0  0  0  0  0
    4.1369    2.7962   -0.3500 C   0  0  0  0  0  0  0  0  0  0  0  0
    3.6004    1.7799   -1.1618 O   0  0  0  0  0  0  0  0  0  0  0  0
    2.5900    0.9612   -0.6398 C   0  0  0  0  0  0  0  0  0  0  0  0
    2.0288   -0.0475   -1.3870 C   0  0  0  0  0  0  0  0  0  0  0  0
    1.0328   -0.8547   -0.8724 C   0  0  0  0  0  0  0  0  0  0  0  0
    0.6342   -0.6240    0.3702 C   0  0  0  0  0  0  0  0  0  0  0  0
   -0.5335   -1.5417    1.0268 C   0  0  2  0  0  0  0  0  0  0  0  0
    0.0122   -2.8749    0.5529 N   0  0  0  0  0  0  0  0  0  0  0  0
   -0.2871   -3.5649   -0.4071 C   0  0  0  0  0  0  0  0  0  0  0  0
    0.3830   -4.8254   -0.6657 N   0  0  0  0  0  0  0  0  0  0  0  0
   -1.2931   -3.0834   -1.2300 N   0  0  0  0  0  0  0  0  0  0  0  0
   -1.9197   -2.0085   -1.0774 C   0  0  0  0  0  0  0  0  0  0  0  0
   -2.9323   -1.6385   -2.0041 N   0  0  0  0  0  0  0  0  0  0  0  0
   -1.6449   -1.1810   -0.0295 N   0  0  0  0  0  0  0  0  0  0  0  0
   -2.2958    0.0667    0.2415 C   0  0  0  0  0  0  0  0  0  0  0  0
   -3.4195    0.0863    1.0338 C   0  0  0  0  0  0  0  0  0  0  0  0
   -4.0922    1.2609    1.3313 C   0  0  0  0  0  0  0  0  0  0  0  0
   -3.6440    2.4501    0.8334 C   0  0  0  0  0  0  0  0  0  0  0  0
   -2.5068    2.4583    0.0274 C   0  0  0  0  0  0  0  0  0  0  0  0
   -1.9398    3.9902   -0.6066 Cl  0  0  0  0  0  0  0  0  0  0  0  0
   -1.8423    1.2575   -0.2603 C   0  0  0  0  0  0  0  0  0  0  0  0
    1.1381    0.3533    1.1752 C   0  0  0  0  0  0  0  0  0  0  0  0
    2.1329    1.1497    0.6431 C   0  0  0  0  0  0  0  0  0  0  0  0
  1  2  1  0
  2  3  1  0
  3  4  1  0
  4  5  1  0
  5  6  2  0
  6  7  1  0
  7  8  2  0
  9  8  1  6
  9 10  1  0
 10 11  2  0
 11 12  1  0
 11 13  1  0
 13 14  2  0
 14 15  1  0
 14 16  1  0
 16 17  1  0
 17 18  2  0
 18 19  1  0
 19 20  2  0
 20 21  1  0
 21 22  1  0
 21 23  2  0
  8 24  1  0
 24 25  2  0
 25  5  1  0
 16  9  1  0
 23 17  1  0
M  END
>  <zinc_id>  (958) 
ZINC000013559324

>  <ortholog_name>  (958) 
DRTS_PLAFK

>  <gene_name>  (958) 
DRTS_PLAFK

>  <affinity>  (958) 
5.54

>  <chembldocid>  (958) 
17662

>  <title>  (958) 
None

>  <reference.pubmed_id>  (958) 
14736247

>  <reference.doi>  (958) 
None

>  <reference.chembl_id>  (958) 
CHEMBL1138835

>  <reference.journal>  (958) 
J. Med. Chem.

>  <reference.year>  (958) 
2004

$$$$

     RDKit          3D

 25 27  0  0  0  0  0  0  0  0999 V2000
    5.8962    1.3447    0.5611 C   0  0  0  0  0  0  0  0  0  0  0  0
    4.7654    2.2896    0.9066 C   0  0  0  0  0  0  0  0  0  0  0  0
    4.1369    2.7962   -0.3500 C   0  0  0  0  0  0  0  0  0  0  0  0
    3.6004    1.7799   -1.1618 O   0  0  0  0  0  0  0  0  0  0  0  0
    2.5900    0.9612   -0.6398 C   0  0  0  0  0  0  0  0  0  0  0  0
    2.0288   -0.0475   -1.3870 C   0  0  0  0  0  0  0  0  0  0  0  0
    1.0328   -0.8547   -0.8724 C   0  0  0  0  0  0  0  0  0  0  0  0
    0.6342   -0.6240    0.3702 C   0  0  0  0  0  0  0  0  0  0  0  0
   -0.5335   -1.5417    1.0268 C   0  0  2  0  0  0  0  0  0  0  0  0
    0.0122   -2.8749    0.5529 N   0  0  0  0  0  0  0  0  0  0  0  0
   -0.2871   -3.5649   -0.4071 C   0  0  0  0  0  0  0  0  0  0  0  0
    0.3830   -4.8254   -0.6657 N   0  0  0  0  0  0  0  0  0  0  0  0
   -1.2931   -3.0834   -1.2300 N   0  0  0  0  0  0  0  0  0  0  0  0
   -1.9197   -2.0085   -1.0774 C   0  0  0  0  0  0  0  0  0  0  0  0
   -2.9323   -1.6385   -2.0041 N   0  0  0  0  0  0  0  0  0  0  0  0
   -1.6449   -1.1810   -0.0295 N   0  0  0  0  0  0  0  0  0  0  0  0
   -2.2958    0.0667    0.2415 C   0  0  0  0  0  0  0  0  0  0  0  0
   -3.4195    0.0863    1.0338 C   0  0  0  0  0  0  0  0  0  0  0  0
   -4.0922    1.2609    1.3313 C   0  0  0  0  0  0  0  0  0  0  0  0
   -3.6440    2.4501    0.8334 C   0  0  0  0  0  0  0  0  0  0  0  0
   -2.5068    2.4583    0.0274 C   0  0  0  0  0  0  0  0  0  0  0  0
   -1.9398    3.9902   -0.6066 Cl  0  0  0  0  0  0  0  0  0  0  0  0
   -1.8423    1.2575   -0.2603 C   0  0  0  0  0  0  0  0  0  0  0  0
    1.1381    0.3533    1.1752 C   0  0  0  0  0  0  0  0  0  0  0  0
    2.1329    1.1497    0.6431 C   0  0  0  0  0  0  0  0  0  0  0  0
  1  2  1  0
  2  3  1  0
  3  4  1  0
  4  5  1  0
  5  6  2  0
  6  7  1  0
  7  8  2  0
  9  8  1  6
  9 10  1  0
 10 11  2  0
 11 12  1  0
 11 13  1  0
 13 14  2  0
 14 15  1  0
 14 16  1  0
 16 17  1  0
 17 18  2  0
 18 19  1  0
 19 20  2  0
 20 21  1  0
 21 22  1  0
 21 23  2  0
  8 24  1  0
 24 25  2  0
 25  5  1  0
 16  9  1  0
 23 17  1  0
M  END
>  <zinc_id>  (959) 
ZINC000013559324

>  <ortholog_name>  (959) 
DRTS_PLAFK

>  <gene_name>  (959) 
DRTS_PLAFK

>  <affinity>  (959) 
8.48

>  <chembldocid>  (959) 
17662

>  <title>  (959) 
None

>  <reference.pubmed_id>  (959) 
14736247

>  <reference.doi>  (959) 
None

>  <reference.chembl_id>  (959) 
CHEMBL1138835

>  <reference.journal>  (959) 
J. Med. Chem.

>  <reference.year>  (959) 
2004

$$$$

     RDKit          3D

 25 27  0  0  0  0  0  0  0  0999 V2000
    5.8962    1.3447    0.5611 C   0  0  0  0  0  0  0  0  0  0  0  0
    4.7654    2.2896    0.9066 C   0  0  0  0  0  0  0  0  0  0  0  0
    4.1369    2.7962   -0.3500 C   0  0  0  0  0  0  0  0  0  0  0  0
    3.6004    1.7799   -1.1618 O   0  0  0  0  0  0  0  0  0  0  0  0
    2.5900    0.9612   -0.6398 C   0  0  0  0  0  0  0  0  0  0  0  0
    2.0288   -0.0475   -1.3870 C   0  0  0  0  0  0  0  0  0  0  0  0
    1.0328   -0.8547   -0.8724 C   0  0  0  0  0  0  0  0  0  0  0  0
    0.6342   -0.6240    0.3702 C   0  0  0  0  0  0  0  0  0  0  0  0
   -0.5335   -1.5417    1.0268 C   0  0  2  0  0  0  0  0  0  0  0  0
    0.0122   -2.8749    0.5529 N   0  0  0  0  0  0  0  0  0  0  0  0
   -0.2871   -3.5649   -0.4071 C   0  0  0  0  0  0  0  0  0  0  0  0
    0.3830   -4.8254   -0.6657 N   0  0  0  0  0  0  0  0  0  0  0  0
   -1.2931   -3.0834   -1.2300 N   0  0  0  0  0  0  0  0  0  0  0  0
   -1.9197   -2.0085   -1.0774 C   0  0  0  0  0  0  0  0  0  0  0  0
   -2.9323   -1.6385   -2.0041 N   0  0  0  0  0  0  0  0  0  0  0  0
   -1.6449   -1.1810   -0.0295 N   0  0  0  0  0  0  0  0  0  0  0  0
   -2.2958    0.0667    0.2415 C   0  0  0  0  0  0  0  0  0  0  0  0
   -3.4195    0.0863    1.0338 C   0  0  0  0  0  0  0  0  0  0  0  0
   -4.0922    1.2609    1.3313 C   0  0  0  0  0  0  0  0  0  0  0  0
   -3.6440    2.4501    0.8334 C   0  0  0  0  0  0  0  0  0  0  0  0
   -2.5068    2.4583    0.0274 C   0  0  0  0  0  0  0  0  0  0  0  0
   -1.9398    3.9902   -0.6066 Cl  0  0  0  0  0  0  0  0  0  0  0  0
   -1.8423    1.2575   -0.2603 C   0  0  0  0  0  0  0  0  0  0  0  0
    1.1381    0.3533    1.1752 C   0  0  0  0  0  0  0  0  0  0  0  0
    2.1329    1.1497    0.6431 C   0  0  0  0  0  0  0  0  0  0  0  0
  1  2  1  0
  2  3  1  0
  3  4  1  0
  4  5  1  0
  5  6  2  0
  6  7  1  0
  7  8  2  0
  9  8  1  6
  9 10  1  0
 10 11  2  0
 11 12  1  0
 11 13  1  0
 13 14  2  0
 14 15  1  0
 14 16  1  0
 16 17  1  0
 17 18  2  0
 18 19  1  0
 19 20  2  0
 20 21  1  0
 21 22  1  0
 21 23  2  0
  8 24  1  0
 24 25  2  0
 25  5  1  0
 16  9  1  0
 23 17  1  0
M  END
>  <zinc_id>  (960) 
ZINC000013559324

>  <ortholog_name>  (960) 
DRTS_PLAFK

>  <gene_name>  (960) 
DRTS_PLAFK

>  <affinity>  (960) 
6.42

>  <chembldocid>  (960) 
17662

>  <title>  (960) 
None

>  <reference.pubmed_id>  (960) 
14736247

>  <reference.doi>  (960) 
None

>  <reference.chembl_id>  (960) 
CHEMBL1138835

>  <reference.journal>  (960) 
J. Med. Chem.

>  <reference.year>  (960) 
2004

$$$$

     RDKit          3D

 25 27  0  0  0  0  0  0  0  0999 V2000
    5.8962    1.3447    0.5611 C   0  0  0  0  0  0  0  0  0  0  0  0
    4.7654    2.2896    0.9066 C   0  0  0  0  0  0  0  0  0  0  0  0
    4.1369    2.7962   -0.3500 C   0  0  0  0  0  0  0  0  0  0  0  0
    3.6004    1.7799   -1.1618 O   0  0  0  0  0  0  0  0  0  0  0  0
    2.5900    0.9612   -0.6398 C   0  0  0  0  0  0  0  0  0  0  0  0
    2.0288   -0.0475   -1.3870 C   0  0  0  0  0  0  0  0  0  0  0  0
    1.0328   -0.8547   -0.8724 C   0  0  0  0  0  0  0  0  0  0  0  0
    0.6342   -0.6240    0.3702 C   0  0  0  0  0  0  0  0  0  0  0  0
   -0.5335   -1.5417    1.0268 C   0  0  2  0  0  0  0  0  0  0  0  0
    0.0122   -2.8749    0.5529 N   0  0  0  0  0  0  0  0  0  0  0  0
   -0.2871   -3.5649   -0.4071 C   0  0  0  0  0  0  0  0  0  0  0  0
    0.3830   -4.8254   -0.6657 N   0  0  0  0  0  0  0  0  0  0  0  0
   -1.2931   -3.0834   -1.2300 N   0  0  0  0  0  0  0  0  0  0  0  0
   -1.9197   -2.0085   -1.0774 C   0  0  0  0  0  0  0  0  0  0  0  0
   -2.9323   -1.6385   -2.0041 N   0  0  0  0  0  0  0  0  0  0  0  0
   -1.6449   -1.1810   -0.0295 N   0  0  0  0  0  0  0  0  0  0  0  0
   -2.2958    0.0667    0.2415 C   0  0  0  0  0  0  0  0  0  0  0  0
   -3.4195    0.0863    1.0338 C   0  0  0  0  0  0  0  0  0  0  0  0
   -4.0922    1.2609    1.3313 C   0  0  0  0  0  0  0  0  0  0  0  0
   -3.6440    2.4501    0.8334 C   0  0  0  0  0  0  0  0  0  0  0  0
   -2.5068    2.4583    0.0274 C   0  0  0  0  0  0  0  0  0  0  0  0
   -1.9398    3.9902   -0.6066 Cl  0  0  0  0  0  0  0  0  0  0  0  0
   -1.8423    1.2575   -0.2603 C   0  0  0  0  0  0  0  0  0  0  0  0
    1.1381    0.3533    1.1752 C   0  0  0  0  0  0  0  0  0  0  0  0
    2.1329    1.1497    0.6431 C   0  0  0  0  0  0  0  0  0  0  0  0
  1  2  1  0
  2  3  1  0
  3  4  1  0
  4  5  1  0
  5  6  2  0
  6  7  1  0
  7  8  2  0
  9  8  1  6
  9 10  1  0
 10 11  2  0
 11 12  1  0
 11 13  1  0
 13 14  2  0
 14 15  1  0
 14 16  1  0
 16 17  1  0
 17 18  2  0
 18 19  1  0
 19 20  2  0
 20 21  1  0
 21 22  1  0
 21 23  2  0
  8 24  1  0
 24 25  2  0
 25  5  1  0
 16  9  1  0
 23 17  1  0
M  END
>  <zinc_id>  (961) 
ZINC000013559324

>  <ortholog_name>  (961) 
DRTS_PLAFK

>  <gene_name>  (961) 
DRTS_PLAFK

>  <affinity>  (961) 
8.40

>  <chembldocid>  (961) 
17662

>  <title>  (961) 
None

>  <reference.pubmed_id>  (961) 
14736247

>  <reference.doi>  (961) 
None

>  <reference.chembl_id>  (961) 
CHEMBL1138835

>  <reference.journal>  (961) 
J. Med. Chem.

>  <reference.year>  (961) 
2004

$$$$

     RDKit          3D

 25 27  0  0  0  0  0  0  0  0999 V2000
    5.8962    1.3447    0.5611 C   0  0  0  0  0  0  0  0  0  0  0  0
    4.7654    2.2896    0.9066 C   0  0  0  0  0  0  0  0  0  0  0  0
    4.1369    2.7962   -0.3500 C   0  0  0  0  0  0  0  0  0  0  0  0
    3.6004    1.7799   -1.1618 O   0  0  0  0  0  0  0  0  0  0  0  0
    2.5900    0.9612   -0.6398 C   0  0  0  0  0  0  0  0  0  0  0  0
    2.0288   -0.0475   -1.3870 C   0  0  0  0  0  0  0  0  0  0  0  0
    1.0328   -0.8547   -0.8724 C   0  0  0  0  0  0  0  0  0  0  0  0
    0.6342   -0.6240    0.3702 C   0  0  0  0  0  0  0  0  0  0  0  0
   -0.5335   -1.5417    1.0268 C   0  0  2  0  0  0  0  0  0  0  0  0
    0.0122   -2.8749    0.5529 N   0  0  0  0  0  0  0  0  0  0  0  0
   -0.2871   -3.5649   -0.4071 C   0  0  0  0  0  0  0  0  0  0  0  0
    0.3830   -4.8254   -0.6657 N   0  0  0  0  0  0  0  0  0  0  0  0
   -1.2931   -3.0834   -1.2300 N   0  0  0  0  0  0  0  0  0  0  0  0
   -1.9197   -2.0085   -1.0774 C   0  0  0  0  0  0  0  0  0  0  0  0
   -2.9323   -1.6385   -2.0041 N   0  0  0  0  0  0  0  0  0  0  0  0
   -1.6449   -1.1810   -0.0295 N   0  0  0  0  0  0  0  0  0  0  0  0
   -2.2958    0.0667    0.2415 C   0  0  0  0  0  0  0  0  0  0  0  0
   -3.4195    0.0863    1.0338 C   0  0  0  0  0  0  0  0  0  0  0  0
   -4.0922    1.2609    1.3313 C   0  0  0  0  0  0  0  0  0  0  0  0
   -3.6440    2.4501    0.8334 C   0  0  0  0  0  0  0  0  0  0  0  0
   -2.5068    2.4583    0.0274 C   0  0  0  0  0  0  0  0  0  0  0  0
   -1.9398    3.9902   -0.6066 Cl  0  0  0  0  0  0  0  0  0  0  0  0
   -1.8423    1.2575   -0.2603 C   0  0  0  0  0  0  0  0  0  0  0  0
    1.1381    0.3533    1.1752 C   0  0  0  0  0  0  0  0  0  0  0  0
    2.1329    1.1497    0.6431 C   0  0  0  0  0  0  0  0  0  0  0  0
  1  2  1  0
  2  3  1  0
  3  4  1  0
  4  5  1  0
  5  6  2  0
  6  7  1  0
  7  8  2  0
  9  8  1  6
  9 10  1  0
 10 11  2  0
 11 12  1  0
 11 13  1  0
 13 14  2  0
 14 15  1  0
 14 16  1  0
 16 17  1  0
 17 18  2  0
 18 19  1  0
 19 20  2  0
 20 21  1  0
 21 22  1  0
 21 23  2  0
  8 24  1  0
 24 25  2  0
 25  5  1  0
 16  9  1  0
 23 17  1  0
M  END
>  <zinc_id>  (962) 
ZINC000013559324

>  <ortholog_name>  (962) 
DRTS_PLAFK

>  <gene_name>  (962) 
DRTS_PLAFK

>  <affinity>  (962) 
8.03

>  <chembldocid>  (962) 
17662

>  <title>  (962) 
None

>  <reference.pubmed_id>  (962) 
14736247

>  <reference.doi>  (962) 
None

>  <reference.chembl_id>  (962) 
CHEMBL1138835

>  <reference.journal>  (962) 
J. Med. Chem.

>  <reference.year>  (962) 
2004

$$$$

     RDKit          3D

 25 27  0  0  0  0  0  0  0  0999 V2000
    5.2137    2.6549    2.1664 C   0  0  0  0  0  0  0  0  0  0  0  0
    4.1189    1.6273    2.3080 C   0  0  0  0  0  0  0  0  0  0  0  0
    4.8038    0.2566    2.3646 C   0  0  0  0  0  0  0  0  0  0  0  0
    3.7335   -0.6775    2.4979 O   0  0  0  0  0  0  0  0  0  0  0  0
    2.7640   -0.7333    1.5003 C   0  0  0  0  0  0  0  0  0  0  0  0
    2.7996    0.0776    0.3923 C   0  0  0  0  0  0  0  0  0  0  0  0
    1.8047    0.0040   -0.6082 C   0  0  0  0  0  0  0  0  0  0  0  0
    0.7973   -0.9028   -0.4436 C   0  0  0  0  0  0  0  0  0  0  0  0
   -0.3313   -0.9966   -1.5642 C   0  0  1  0  0  0  0  0  0  0  0  0
   -0.4605   -2.4534   -1.7444 N   0  0  0  0  0  0  0  0  0  0  0  0
   -1.4146   -3.1400   -1.3623 C   0  0  0  0  0  0  0  0  0  0  0  0
   -1.4034   -4.5985   -1.6163 N   0  0  0  0  0  0  0  0  0  0  0  0
   -2.5654   -2.6496   -0.6772 N   0  0  0  0  0  0  0  0  0  0  0  0
   -2.5586   -1.3761   -0.4642 C   0  0  0  0  0  0  0  0  0  0  0  0
   -3.6993   -0.7792    0.2338 N   0  0  0  0  0  0  0  0  0  0  0  0
   -1.5557   -0.4981   -0.8392 N   0  0  0  0  0  0  0  0  0  0  0  0
   -1.6950    0.8802   -0.5318 C   0  0  0  0  0  0  0  0  0  0  0  0
   -1.2496    1.4544    0.6300 C   0  0  0  0  0  0  0  0  0  0  0  0
   -1.4235    2.7950    0.8500 C   0  0  0  0  0  0  0  0  0  0  0  0
   -2.0502    3.6285   -0.0778 C   0  0  0  0  0  0  0  0  0  0  0  0
   -2.4942    3.0358   -1.2443 C   0  0  0  0  0  0  0  0  0  0  0  0
   -3.2882    4.0657   -2.4311 Cl  0  0  0  0  0  0  0  0  0  0  0  0
   -2.3100    1.6827   -1.4488 C   0  0  0  0  0  0  0  0  0  0  0  0
    0.7303   -1.7224    0.6417 C   0  0  0  0  0  0  0  0  0  0  0  0
    1.7335   -1.6351    1.6321 C   0  0  0  0  0  0  0  0  0  0  0  0
  1  2  1  0
  2  3  1  0
  3  4  1  0
  4  5  1  0
  5  6  2  0
  6  7  1  0
  7  8  2  0
  9  8  1  1
  9 10  1  0
 10 11  2  0
 11 12  1  0
 11 13  1  0
 13 14  2  0
 14 15  1  0
 14 16  1  0
 16 17  1  0
 17 18  2  0
 18 19  1  0
 19 20  2  0
 20 21  1  0
 21 22  1  0
 21 23  2  0
  8 24  1  0
 24 25  2  0
 25  5  1  0
 16  9  1  0
 23 17  1  0
M  END
>  <zinc_id>  (963) 
ZINC000013559325

>  <ortholog_name>  (963) 
DRTS_PLAFK

>  <gene_name>  (963) 
DRTS_PLAFK

>  <affinity>  (963) 
9.30

>  <chembldocid>  (963) 
17662

>  <title>  (963) 
None

>  <reference.pubmed_id>  (963) 
14736247

>  <reference.doi>  (963) 
None

>  <reference.chembl_id>  (963) 
CHEMBL1138835

>  <reference.journal>  (963) 
J. Med. Chem.

>  <reference.year>  (963) 
2004

$$$$

     RDKit          3D

 25 27  0  0  0  0  0  0  0  0999 V2000
    5.2137    2.6549    2.1664 C   0  0  0  0  0  0  0  0  0  0  0  0
    4.1189    1.6273    2.3080 C   0  0  0  0  0  0  0  0  0  0  0  0
    4.8038    0.2566    2.3646 C   0  0  0  0  0  0  0  0  0  0  0  0
    3.7335   -0.6775    2.4979 O   0  0  0  0  0  0  0  0  0  0  0  0
    2.7640   -0.7333    1.5003 C   0  0  0  0  0  0  0  0  0  0  0  0
    2.7996    0.0776    0.3923 C   0  0  0  0  0  0  0  0  0  0  0  0
    1.8047    0.0040   -0.6082 C   0  0  0  0  0  0  0  0  0  0  0  0
    0.7973   -0.9028   -0.4436 C   0  0  0  0  0  0  0  0  0  0  0  0
   -0.3313   -0.9966   -1.5642 C   0  0  1  0  0  0  0  0  0  0  0  0
   -0.4605   -2.4534   -1.7444 N   0  0  0  0  0  0  0  0  0  0  0  0
   -1.4146   -3.1400   -1.3623 C   0  0  0  0  0  0  0  0  0  0  0  0
   -1.4034   -4.5985   -1.6163 N   0  0  0  0  0  0  0  0  0  0  0  0
   -2.5654   -2.6496   -0.6772 N   0  0  0  0  0  0  0  0  0  0  0  0
   -2.5586   -1.3761   -0.4642 C   0  0  0  0  0  0  0  0  0  0  0  0
   -3.6993   -0.7792    0.2338 N   0  0  0  0  0  0  0  0  0  0  0  0
   -1.5557   -0.4981   -0.8392 N   0  0  0  0  0  0  0  0  0  0  0  0
   -1.6950    0.8802   -0.5318 C   0  0  0  0  0  0  0  0  0  0  0  0
   -1.2496    1.4544    0.6300 C   0  0  0  0  0  0  0  0  0  0  0  0
   -1.4235    2.7950    0.8500 C   0  0  0  0  0  0  0  0  0  0  0  0
   -2.0502    3.6285   -0.0778 C   0  0  0  0  0  0  0  0  0  0  0  0
   -2.4942    3.0358   -1.2443 C   0  0  0  0  0  0  0  0  0  0  0  0
   -3.2882    4.0657   -2.4311 Cl  0  0  0  0  0  0  0  0  0  0  0  0
   -2.3100    1.6827   -1.4488 C   0  0  0  0  0  0  0  0  0  0  0  0
    0.7303   -1.7224    0.6417 C   0  0  0  0  0  0  0  0  0  0  0  0
    1.7335   -1.6351    1.6321 C   0  0  0  0  0  0  0  0  0  0  0  0
  1  2  1  0
  2  3  1  0
  3  4  1  0
  4  5  1  0
  5  6  2  0
  6  7  1  0
  7  8  2  0
  9  8  1  1
  9 10  1  0
 10 11  2  0
 11 12  1  0
 11 13  1  0
 13 14  2  0
 14 15  1  0
 14 16  1  0
 16 17  1  0
 17 18  2  0
 18 19  1  0
 19 20  2  0
 20 21  1  0
 21 22  1  0
 21 23  2  0
  8 24  1  0
 24 25  2  0
 25  5  1  0
 16  9  1  0
 23 17  1  0
M  END
>  <zinc_id>  (964) 
ZINC000013559325

>  <ortholog_name>  (964) 
DRTS_PLAFK

>  <gene_name>  (964) 
DRTS_PLAFK

>  <affinity>  (964) 
6.00

>  <chembldocid>  (964) 
17662

>  <title>  (964) 
None

>  <reference.pubmed_id>  (964) 
14736247

>  <reference.doi>  (964) 
None

>  <reference.chembl_id>  (964) 
CHEMBL1138835

>  <reference.journal>  (964) 
J. Med. Chem.

>  <reference.year>  (964) 
2004

$$$$

     RDKit          3D

 25 27  0  0  0  0  0  0  0  0999 V2000
    5.2137    2.6549    2.1664 C   0  0  0  0  0  0  0  0  0  0  0  0
    4.1189    1.6273    2.3080 C   0  0  0  0  0  0  0  0  0  0  0  0
    4.8038    0.2566    2.3646 C   0  0  0  0  0  0  0  0  0  0  0  0
    3.7335   -0.6775    2.4979 O   0  0  0  0  0  0  0  0  0  0  0  0
    2.7640   -0.7333    1.5003 C   0  0  0  0  0  0  0  0  0  0  0  0
    2.7996    0.0776    0.3923 C   0  0  0  0  0  0  0  0  0  0  0  0
    1.8047    0.0040   -0.6082 C   0  0  0  0  0  0  0  0  0  0  0  0
    0.7973   -0.9028   -0.4436 C   0  0  0  0  0  0  0  0  0  0  0  0
   -0.3313   -0.9966   -1.5642 C   0  0  1  0  0  0  0  0  0  0  0  0
   -0.4605   -2.4534   -1.7444 N   0  0  0  0  0  0  0  0  0  0  0  0
   -1.4146   -3.1400   -1.3623 C   0  0  0  0  0  0  0  0  0  0  0  0
   -1.4034   -4.5985   -1.6163 N   0  0  0  0  0  0  0  0  0  0  0  0
   -2.5654   -2.6496   -0.6772 N   0  0  0  0  0  0  0  0  0  0  0  0
   -2.5586   -1.3761   -0.4642 C   0  0  0  0  0  0  0  0  0  0  0  0
   -3.6993   -0.7792    0.2338 N   0  0  0  0  0  0  0  0  0  0  0  0
   -1.5557   -0.4981   -0.8392 N   0  0  0  0  0  0  0  0  0  0  0  0
   -1.6950    0.8802   -0.5318 C   0  0  0  0  0  0  0  0  0  0  0  0
   -1.2496    1.4544    0.6300 C   0  0  0  0  0  0  0  0  0  0  0  0
   -1.4235    2.7950    0.8500 C   0  0  0  0  0  0  0  0  0  0  0  0
   -2.0502    3.6285   -0.0778 C   0  0  0  0  0  0  0  0  0  0  0  0
   -2.4942    3.0358   -1.2443 C   0  0  0  0  0  0  0  0  0  0  0  0
   -3.2882    4.0657   -2.4311 Cl  0  0  0  0  0  0  0  0  0  0  0  0
   -2.3100    1.6827   -1.4488 C   0  0  0  0  0  0  0  0  0  0  0  0
    0.7303   -1.7224    0.6417 C   0  0  0  0  0  0  0  0  0  0  0  0
    1.7335   -1.6351    1.6321 C   0  0  0  0  0  0  0  0  0  0  0  0
  1  2  1  0
  2  3  1  0
  3  4  1  0
  4  5  1  0
  5  6  2  0
  6  7  1  0
  7  8  2  0
  9  8  1  1
  9 10  1  0
 10 11  2  0
 11 12  1  0
 11 13  1  0
 13 14  2  0
 14 15  1  0
 14 16  1  0
 16 17  1  0
 17 18  2  0
 18 19  1  0
 19 20  2  0
 20 21  1  0
 21 22  1  0
 21 23  2  0
  8 24  1  0
 24 25  2  0
 25  5  1  0
 16  9  1  0
 23 17  1  0
M  END
>  <zinc_id>  (965) 
ZINC000013559325

>  <ortholog_name>  (965) 
DRTS_PLAFK

>  <gene_name>  (965) 
DRTS_PLAFK

>  <affinity>  (965) 
8.68

>  <chembldocid>  (965) 
17662

>  <title>  (965) 
None

>  <reference.pubmed_id>  (965) 
14736247

>  <reference.doi>  (965) 
None

>  <reference.chembl_id>  (965) 
CHEMBL1138835

>  <reference.journal>  (965) 
J. Med. Chem.

>  <reference.year>  (965) 
2004

$$$$

     RDKit          3D

 25 27  0  0  0  0  0  0  0  0999 V2000
    5.2137    2.6549    2.1664 C   0  0  0  0  0  0  0  0  0  0  0  0
    4.1189    1.6273    2.3080 C   0  0  0  0  0  0  0  0  0  0  0  0
    4.8038    0.2566    2.3646 C   0  0  0  0  0  0  0  0  0  0  0  0
    3.7335   -0.6775    2.4979 O   0  0  0  0  0  0  0  0  0  0  0  0
    2.7640   -0.7333    1.5003 C   0  0  0  0  0  0  0  0  0  0  0  0
    2.7996    0.0776    0.3923 C   0  0  0  0  0  0  0  0  0  0  0  0
    1.8047    0.0040   -0.6082 C   0  0  0  0  0  0  0  0  0  0  0  0
    0.7973   -0.9028   -0.4436 C   0  0  0  0  0  0  0  0  0  0  0  0
   -0.3313   -0.9966   -1.5642 C   0  0  1  0  0  0  0  0  0  0  0  0
   -0.4605   -2.4534   -1.7444 N   0  0  0  0  0  0  0  0  0  0  0  0
   -1.4146   -3.1400   -1.3623 C   0  0  0  0  0  0  0  0  0  0  0  0
   -1.4034   -4.5985   -1.6163 N   0  0  0  0  0  0  0  0  0  0  0  0
   -2.5654   -2.6496   -0.6772 N   0  0  0  0  0  0  0  0  0  0  0  0
   -2.5586   -1.3761   -0.4642 C   0  0  0  0  0  0  0  0  0  0  0  0
   -3.6993   -0.7792    0.2338 N   0  0  0  0  0  0  0  0  0  0  0  0
   -1.5557   -0.4981   -0.8392 N   0  0  0  0  0  0  0  0  0  0  0  0
   -1.6950    0.8802   -0.5318 C   0  0  0  0  0  0  0  0  0  0  0  0
   -1.2496    1.4544    0.6300 C   0  0  0  0  0  0  0  0  0  0  0  0
   -1.4235    2.7950    0.8500 C   0  0  0  0  0  0  0  0  0  0  0  0
   -2.0502    3.6285   -0.0778 C   0  0  0  0  0  0  0  0  0  0  0  0
   -2.4942    3.0358   -1.2443 C   0  0  0  0  0  0  0  0  0  0  0  0
   -3.2882    4.0657   -2.4311 Cl  0  0  0  0  0  0  0  0  0  0  0  0
   -2.3100    1.6827   -1.4488 C   0  0  0  0  0  0  0  0  0  0  0  0
    0.7303   -1.7224    0.6417 C   0  0  0  0  0  0  0  0  0  0  0  0
    1.7335   -1.6351    1.6321 C   0  0  0  0  0  0  0  0  0  0  0  0
  1  2  1  0
  2  3  1  0
  3  4  1  0
  4  5  1  0
  5  6  2  0
  6  7  1  0
  7  8  2  0
  9  8  1  1
  9 10  1  0
 10 11  2  0
 11 12  1  0
 11 13  1  0
 13 14  2  0
 14 15  1  0
 14 16  1  0
 16 17  1  0
 17 18  2  0
 18 19  1  0
 19 20  2  0
 20 21  1  0
 21 22  1  0
 21 23  2  0
  8 24  1  0
 24 25  2  0
 25  5  1  0
 16  9  1  0
 23 17  1  0
M  END
>  <zinc_id>  (966) 
ZINC000013559325

>  <ortholog_name>  (966) 
DRTS_PLAFK

>  <gene_name>  (966) 
DRTS_PLAFK

>  <affinity>  (966) 
8.57

>  <chembldocid>  (966) 
17662

>  <title>  (966) 
None

>  <reference.pubmed_id>  (966) 
14736247

>  <reference.doi>  (966) 
None

>  <reference.chembl_id>  (966) 
CHEMBL1138835

>  <reference.journal>  (966) 
J. Med. Chem.

>  <reference.year>  (966) 
2004

$$$$

     RDKit          3D

 25 27  0  0  0  0  0  0  0  0999 V2000
    5.2137    2.6549    2.1664 C   0  0  0  0  0  0  0  0  0  0  0  0
    4.1189    1.6273    2.3080 C   0  0  0  0  0  0  0  0  0  0  0  0
    4.8038    0.2566    2.3646 C   0  0  0  0  0  0  0  0  0  0  0  0
    3.7335   -0.6775    2.4979 O   0  0  0  0  0  0  0  0  0  0  0  0
    2.7640   -0.7333    1.5003 C   0  0  0  0  0  0  0  0  0  0  0  0
    2.7996    0.0776    0.3923 C   0  0  0  0  0  0  0  0  0  0  0  0
    1.8047    0.0040   -0.6082 C   0  0  0  0  0  0  0  0  0  0  0  0
    0.7973   -0.9028   -0.4436 C   0  0  0  0  0  0  0  0  0  0  0  0
   -0.3313   -0.9966   -1.5642 C   0  0  1  0  0  0  0  0  0  0  0  0
   -0.4605   -2.4534   -1.7444 N   0  0  0  0  0  0  0  0  0  0  0  0
   -1.4146   -3.1400   -1.3623 C   0  0  0  0  0  0  0  0  0  0  0  0
   -1.4034   -4.5985   -1.6163 N   0  0  0  0  0  0  0  0  0  0  0  0
   -2.5654   -2.6496   -0.6772 N   0  0  0  0  0  0  0  0  0  0  0  0
   -2.5586   -1.3761   -0.4642 C   0  0  0  0  0  0  0  0  0  0  0  0
   -3.6993   -0.7792    0.2338 N   0  0  0  0  0  0  0  0  0  0  0  0
   -1.5557   -0.4981   -0.8392 N   0  0  0  0  0  0  0  0  0  0  0  0
   -1.6950    0.8802   -0.5318 C   0  0  0  0  0  0  0  0  0  0  0  0
   -1.2496    1.4544    0.6300 C   0  0  0  0  0  0  0  0  0  0  0  0
   -1.4235    2.7950    0.8500 C   0  0  0  0  0  0  0  0  0  0  0  0
   -2.0502    3.6285   -0.0778 C   0  0  0  0  0  0  0  0  0  0  0  0
   -2.4942    3.0358   -1.2443 C   0  0  0  0  0  0  0  0  0  0  0  0
   -3.2882    4.0657   -2.4311 Cl  0  0  0  0  0  0  0  0  0  0  0  0
   -2.3100    1.6827   -1.4488 C   0  0  0  0  0  0  0  0  0  0  0  0
    0.7303   -1.7224    0.6417 C   0  0  0  0  0  0  0  0  0  0  0  0
    1.7335   -1.6351    1.6321 C   0  0  0  0  0  0  0  0  0  0  0  0
  1  2  1  0
  2  3  1  0
  3  4  1  0
  4  5  1  0
  5  6  2  0
  6  7  1  0
  7  8  2  0
  9  8  1  1
  9 10  1  0
 10 11  2  0
 11 12  1  0
 11 13  1  0
 13 14  2  0
 14 15  1  0
 14 16  1  0
 16 17  1  0
 17 18  2  0
 18 19  1  0
 19 20  2  0
 20 21  1  0
 21 22  1  0
 21 23  2  0
  8 24  1  0
 24 25  2  0
 25  5  1  0
 16  9  1  0
 23 17  1  0
M  END
>  <zinc_id>  (967) 
ZINC000013559325

>  <ortholog_name>  (967) 
DRTS_PLAFK

>  <gene_name>  (967) 
DRTS_PLAFK

>  <affinity>  (967) 
6.60

>  <chembldocid>  (967) 
17662

>  <title>  (967) 
None

>  <reference.pubmed_id>  (967) 
14736247

>  <reference.doi>  (967) 
None

>  <reference.chembl_id>  (967) 
CHEMBL1138835

>  <reference.journal>  (967) 
J. Med. Chem.

>  <reference.year>  (967) 
2004

$$$$

     RDKit          3D

 25 27  0  0  0  0  0  0  0  0999 V2000
    5.2137    2.6549    2.1664 C   0  0  0  0  0  0  0  0  0  0  0  0
    4.1189    1.6273    2.3080 C   0  0  0  0  0  0  0  0  0  0  0  0
    4.8038    0.2566    2.3646 C   0  0  0  0  0  0  0  0  0  0  0  0
    3.7335   -0.6775    2.4979 O   0  0  0  0  0  0  0  0  0  0  0  0
    2.7640   -0.7333    1.5003 C   0  0  0  0  0  0  0  0  0  0  0  0
    2.7996    0.0776    0.3923 C   0  0  0  0  0  0  0  0  0  0  0  0
    1.8047    0.0040   -0.6082 C   0  0  0  0  0  0  0  0  0  0  0  0
    0.7973   -0.9028   -0.4436 C   0  0  0  0  0  0  0  0  0  0  0  0
   -0.3313   -0.9966   -1.5642 C   0  0  1  0  0  0  0  0  0  0  0  0
   -0.4605   -2.4534   -1.7444 N   0  0  0  0  0  0  0  0  0  0  0  0
   -1.4146   -3.1400   -1.3623 C   0  0  0  0  0  0  0  0  0  0  0  0
   -1.4034   -4.5985   -1.6163 N   0  0  0  0  0  0  0  0  0  0  0  0
   -2.5654   -2.6496   -0.6772 N   0  0  0  0  0  0  0  0  0  0  0  0
   -2.5586   -1.3761   -0.4642 C   0  0  0  0  0  0  0  0  0  0  0  0
   -3.6993   -0.7792    0.2338 N   0  0  0  0  0  0  0  0  0  0  0  0
   -1.5557   -0.4981   -0.8392 N   0  0  0  0  0  0  0  0  0  0  0  0
   -1.6950    0.8802   -0.5318 C   0  0  0  0  0  0  0  0  0  0  0  0
   -1.2496    1.4544    0.6300 C   0  0  0  0  0  0  0  0  0  0  0  0
   -1.4235    2.7950    0.8500 C   0  0  0  0  0  0  0  0  0  0  0  0
   -2.0502    3.6285   -0.0778 C   0  0  0  0  0  0  0  0  0  0  0  0
   -2.4942    3.0358   -1.2443 C   0  0  0  0  0  0  0  0  0  0  0  0
   -3.2882    4.0657   -2.4311 Cl  0  0  0  0  0  0  0  0  0  0  0  0
   -2.3100    1.6827   -1.4488 C   0  0  0  0  0  0  0  0  0  0  0  0
    0.7303   -1.7224    0.6417 C   0  0  0  0  0  0  0  0  0  0  0  0
    1.7335   -1.6351    1.6321 C   0  0  0  0  0  0  0  0  0  0  0  0
  1  2  1  0
  2  3  1  0
  3  4  1  0
  4  5  1  0
  5  6  2  0
  6  7  1  0
  7  8  2  0
  9  8  1  1
  9 10  1  0
 10 11  2  0
 11 12  1  0
 11 13  1  0
 13 14  2  0
 14 15  1  0
 14 16  1  0
 16 17  1  0
 17 18  2  0
 18 19  1  0
 19 20  2  0
 20 21  1  0
 21 22  1  0
 21 23  2  0
  8 24  1  0
 24 25  2  0
 25  5  1  0
 16  9  1  0
 23 17  1  0
M  END
>  <zinc_id>  (968) 
ZINC000013559325

>  <ortholog_name>  (968) 
DRTS_PLAFK

>  <gene_name>  (968) 
DRTS_PLAFK

>  <affinity>  (968) 
5.54

>  <chembldocid>  (968) 
17662

>  <title>  (968) 
None

>  <reference.pubmed_id>  (968) 
14736247

>  <reference.doi>  (968) 
None

>  <reference.chembl_id>  (968) 
CHEMBL1138835

>  <reference.journal>  (968) 
J. Med. Chem.

>  <reference.year>  (968) 
2004

$$$$

     RDKit          3D

 25 27  0  0  0  0  0  0  0  0999 V2000
    5.2137    2.6549    2.1664 C   0  0  0  0  0  0  0  0  0  0  0  0
    4.1189    1.6273    2.3080 C   0  0  0  0  0  0  0  0  0  0  0  0
    4.8038    0.2566    2.3646 C   0  0  0  0  0  0  0  0  0  0  0  0
    3.7335   -0.6775    2.4979 O   0  0  0  0  0  0  0  0  0  0  0  0
    2.7640   -0.7333    1.5003 C   0  0  0  0  0  0  0  0  0  0  0  0
    2.7996    0.0776    0.3923 C   0  0  0  0  0  0  0  0  0  0  0  0
    1.8047    0.0040   -0.6082 C   0  0  0  0  0  0  0  0  0  0  0  0
    0.7973   -0.9028   -0.4436 C   0  0  0  0  0  0  0  0  0  0  0  0
   -0.3313   -0.9966   -1.5642 C   0  0  1  0  0  0  0  0  0  0  0  0
   -0.4605   -2.4534   -1.7444 N   0  0  0  0  0  0  0  0  0  0  0  0
   -1.4146   -3.1400   -1.3623 C   0  0  0  0  0  0  0  0  0  0  0  0
   -1.4034   -4.5985   -1.6163 N   0  0  0  0  0  0  0  0  0  0  0  0
   -2.5654   -2.6496   -0.6772 N   0  0  0  0  0  0  0  0  0  0  0  0
   -2.5586   -1.3761   -0.4642 C   0  0  0  0  0  0  0  0  0  0  0  0
   -3.6993   -0.7792    0.2338 N   0  0  0  0  0  0  0  0  0  0  0  0
   -1.5557   -0.4981   -0.8392 N   0  0  0  0  0  0  0  0  0  0  0  0
   -1.6950    0.8802   -0.5318 C   0  0  0  0  0  0  0  0  0  0  0  0
   -1.2496    1.4544    0.6300 C   0  0  0  0  0  0  0  0  0  0  0  0
   -1.4235    2.7950    0.8500 C   0  0  0  0  0  0  0  0  0  0  0  0
   -2.0502    3.6285   -0.0778 C   0  0  0  0  0  0  0  0  0  0  0  0
   -2.4942    3.0358   -1.2443 C   0  0  0  0  0  0  0  0  0  0  0  0
   -3.2882    4.0657   -2.4311 Cl  0  0  0  0  0  0  0  0  0  0  0  0
   -2.3100    1.6827   -1.4488 C   0  0  0  0  0  0  0  0  0  0  0  0
    0.7303   -1.7224    0.6417 C   0  0  0  0  0  0  0  0  0  0  0  0
    1.7335   -1.6351    1.6321 C   0  0  0  0  0  0  0  0  0  0  0  0
  1  2  1  0
  2  3  1  0
  3  4  1  0
  4  5  1  0
  5  6  2  0
  6  7  1  0
  7  8  2  0
  9  8  1  1
  9 10  1  0
 10 11  2  0
 11 12  1  0
 11 13  1  0
 13 14  2  0
 14 15  1  0
 14 16  1  0
 16 17  1  0
 17 18  2  0
 18 19  1  0
 19 20  2  0
 20 21  1  0
 21 22  1  0
 21 23  2  0
  8 24  1  0
 24 25  2  0
 25  5  1  0
 16  9  1  0
 23 17  1  0
M  END
>  <zinc_id>  (969) 
ZINC000013559325

>  <ortholog_name>  (969) 
DRTS_PLAFK

>  <gene_name>  (969) 
DRTS_PLAFK

>  <affinity>  (969) 
8.48

>  <chembldocid>  (969) 
17662

>  <title>  (969) 
None

>  <reference.pubmed_id>  (969) 
14736247

>  <reference.doi>  (969) 
None

>  <reference.chembl_id>  (969) 
CHEMBL1138835

>  <reference.journal>  (969) 
J. Med. Chem.

>  <reference.year>  (969) 
2004

$$$$

     RDKit          3D

 25 27  0  0  0  0  0  0  0  0999 V2000
    5.2137    2.6549    2.1664 C   0  0  0  0  0  0  0  0  0  0  0  0
    4.1189    1.6273    2.3080 C   0  0  0  0  0  0  0  0  0  0  0  0
    4.8038    0.2566    2.3646 C   0  0  0  0  0  0  0  0  0  0  0  0
    3.7335   -0.6775    2.4979 O   0  0  0  0  0  0  0  0  0  0  0  0
    2.7640   -0.7333    1.5003 C   0  0  0  0  0  0  0  0  0  0  0  0
    2.7996    0.0776    0.3923 C   0  0  0  0  0  0  0  0  0  0  0  0
    1.8047    0.0040   -0.6082 C   0  0  0  0  0  0  0  0  0  0  0  0
    0.7973   -0.9028   -0.4436 C   0  0  0  0  0  0  0  0  0  0  0  0
   -0.3313   -0.9966   -1.5642 C   0  0  1  0  0  0  0  0  0  0  0  0
   -0.4605   -2.4534   -1.7444 N   0  0  0  0  0  0  0  0  0  0  0  0
   -1.4146   -3.1400   -1.3623 C   0  0  0  0  0  0  0  0  0  0  0  0
   -1.4034   -4.5985   -1.6163 N   0  0  0  0  0  0  0  0  0  0  0  0
   -2.5654   -2.6496   -0.6772 N   0  0  0  0  0  0  0  0  0  0  0  0
   -2.5586   -1.3761   -0.4642 C   0  0  0  0  0  0  0  0  0  0  0  0
   -3.6993   -0.7792    0.2338 N   0  0  0  0  0  0  0  0  0  0  0  0
   -1.5557   -0.4981   -0.8392 N   0  0  0  0  0  0  0  0  0  0  0  0
   -1.6950    0.8802   -0.5318 C   0  0  0  0  0  0  0  0  0  0  0  0
   -1.2496    1.4544    0.6300 C   0  0  0  0  0  0  0  0  0  0  0  0
   -1.4235    2.7950    0.8500 C   0  0  0  0  0  0  0  0  0  0  0  0
   -2.0502    3.6285   -0.0778 C   0  0  0  0  0  0  0  0  0  0  0  0
   -2.4942    3.0358   -1.2443 C   0  0  0  0  0  0  0  0  0  0  0  0
   -3.2882    4.0657   -2.4311 Cl  0  0  0  0  0  0  0  0  0  0  0  0
   -2.3100    1.6827   -1.4488 C   0  0  0  0  0  0  0  0  0  0  0  0
    0.7303   -1.7224    0.6417 C   0  0  0  0  0  0  0  0  0  0  0  0
    1.7335   -1.6351    1.6321 C   0  0  0  0  0  0  0  0  0  0  0  0
  1  2  1  0
  2  3  1  0
  3  4  1  0
  4  5  1  0
  5  6  2  0
  6  7  1  0
  7  8  2  0
  9  8  1  1
  9 10  1  0
 10 11  2  0
 11 12  1  0
 11 13  1  0
 13 14  2  0
 14 15  1  0
 14 16  1  0
 16 17  1  0
 17 18  2  0
 18 19  1  0
 19 20  2  0
 20 21  1  0
 21 22  1  0
 21 23  2  0
  8 24  1  0
 24 25  2  0
 25  5  1  0
 16  9  1  0
 23 17  1  0
M  END
>  <zinc_id>  (970) 
ZINC000013559325

>  <ortholog_name>  (970) 
DRTS_PLAFK

>  <gene_name>  (970) 
DRTS_PLAFK

>  <affinity>  (970) 
6.42

>  <chembldocid>  (970) 
17662

>  <title>  (970) 
None

>  <reference.pubmed_id>  (970) 
14736247

>  <reference.doi>  (970) 
None

>  <reference.chembl_id>  (970) 
CHEMBL1138835

>  <reference.journal>  (970) 
J. Med. Chem.

>  <reference.year>  (970) 
2004

$$$$

     RDKit          3D

 25 27  0  0  0  0  0  0  0  0999 V2000
    5.2137    2.6549    2.1664 C   0  0  0  0  0  0  0  0  0  0  0  0
    4.1189    1.6273    2.3080 C   0  0  0  0  0  0  0  0  0  0  0  0
    4.8038    0.2566    2.3646 C   0  0  0  0  0  0  0  0  0  0  0  0
    3.7335   -0.6775    2.4979 O   0  0  0  0  0  0  0  0  0  0  0  0
    2.7640   -0.7333    1.5003 C   0  0  0  0  0  0  0  0  0  0  0  0
    2.7996    0.0776    0.3923 C   0  0  0  0  0  0  0  0  0  0  0  0
    1.8047    0.0040   -0.6082 C   0  0  0  0  0  0  0  0  0  0  0  0
    0.7973   -0.9028   -0.4436 C   0  0  0  0  0  0  0  0  0  0  0  0
   -0.3313   -0.9966   -1.5642 C   0  0  1  0  0  0  0  0  0  0  0  0
   -0.4605   -2.4534   -1.7444 N   0  0  0  0  0  0  0  0  0  0  0  0
   -1.4146   -3.1400   -1.3623 C   0  0  0  0  0  0  0  0  0  0  0  0
   -1.4034   -4.5985   -1.6163 N   0  0  0  0  0  0  0  0  0  0  0  0
   -2.5654   -2.6496   -0.6772 N   0  0  0  0  0  0  0  0  0  0  0  0
   -2.5586   -1.3761   -0.4642 C   0  0  0  0  0  0  0  0  0  0  0  0
   -3.6993   -0.7792    0.2338 N   0  0  0  0  0  0  0  0  0  0  0  0
   -1.5557   -0.4981   -0.8392 N   0  0  0  0  0  0  0  0  0  0  0  0
   -1.6950    0.8802   -0.5318 C   0  0  0  0  0  0  0  0  0  0  0  0
   -1.2496    1.4544    0.6300 C   0  0  0  0  0  0  0  0  0  0  0  0
   -1.4235    2.7950    0.8500 C   0  0  0  0  0  0  0  0  0  0  0  0
   -2.0502    3.6285   -0.0778 C   0  0  0  0  0  0  0  0  0  0  0  0
   -2.4942    3.0358   -1.2443 C   0  0  0  0  0  0  0  0  0  0  0  0
   -3.2882    4.0657   -2.4311 Cl  0  0  0  0  0  0  0  0  0  0  0  0
   -2.3100    1.6827   -1.4488 C   0  0  0  0  0  0  0  0  0  0  0  0
    0.7303   -1.7224    0.6417 C   0  0  0  0  0  0  0  0  0  0  0  0
    1.7335   -1.6351    1.6321 C   0  0  0  0  0  0  0  0  0  0  0  0
  1  2  1  0
  2  3  1  0
  3  4  1  0
  4  5  1  0
  5  6  2  0
  6  7  1  0
  7  8  2  0
  9  8  1  1
  9 10  1  0
 10 11  2  0
 11 12  1  0
 11 13  1  0
 13 14  2  0
 14 15  1  0
 14 16  1  0
 16 17  1  0
 17 18  2  0
 18 19  1  0
 19 20  2  0
 20 21  1  0
 21 22  1  0
 21 23  2  0
  8 24  1  0
 24 25  2  0
 25  5  1  0
 16  9  1  0
 23 17  1  0
M  END
>  <zinc_id>  (971) 
ZINC000013559325

>  <ortholog_name>  (971) 
DRTS_PLAFK

>  <gene_name>  (971) 
DRTS_PLAFK

>  <affinity>  (971) 
8.40

>  <chembldocid>  (971) 
17662

>  <title>  (971) 
None

>  <reference.pubmed_id>  (971) 
14736247

>  <reference.doi>  (971) 
None

>  <reference.chembl_id>  (971) 
CHEMBL1138835

>  <reference.journal>  (971) 
J. Med. Chem.

>  <reference.year>  (971) 
2004

$$$$

     RDKit          3D

 25 27  0  0  0  0  0  0  0  0999 V2000
    5.2137    2.6549    2.1664 C   0  0  0  0  0  0  0  0  0  0  0  0
    4.1189    1.6273    2.3080 C   0  0  0  0  0  0  0  0  0  0  0  0
    4.8038    0.2566    2.3646 C   0  0  0  0  0  0  0  0  0  0  0  0
    3.7335   -0.6775    2.4979 O   0  0  0  0  0  0  0  0  0  0  0  0
    2.7640   -0.7333    1.5003 C   0  0  0  0  0  0  0  0  0  0  0  0
    2.7996    0.0776    0.3923 C   0  0  0  0  0  0  0  0  0  0  0  0
    1.8047    0.0040   -0.6082 C   0  0  0  0  0  0  0  0  0  0  0  0
    0.7973   -0.9028   -0.4436 C   0  0  0  0  0  0  0  0  0  0  0  0
   -0.3313   -0.9966   -1.5642 C   0  0  1  0  0  0  0  0  0  0  0  0
   -0.4605   -2.4534   -1.7444 N   0  0  0  0  0  0  0  0  0  0  0  0
   -1.4146   -3.1400   -1.3623 C   0  0  0  0  0  0  0  0  0  0  0  0
   -1.4034   -4.5985   -1.6163 N   0  0  0  0  0  0  0  0  0  0  0  0
   -2.5654   -2.6496   -0.6772 N   0  0  0  0  0  0  0  0  0  0  0  0
   -2.5586   -1.3761   -0.4642 C   0  0  0  0  0  0  0  0  0  0  0  0
   -3.6993   -0.7792    0.2338 N   0  0  0  0  0  0  0  0  0  0  0  0
   -1.5557   -0.4981   -0.8392 N   0  0  0  0  0  0  0  0  0  0  0  0
   -1.6950    0.8802   -0.5318 C   0  0  0  0  0  0  0  0  0  0  0  0
   -1.2496    1.4544    0.6300 C   0  0  0  0  0  0  0  0  0  0  0  0
   -1.4235    2.7950    0.8500 C   0  0  0  0  0  0  0  0  0  0  0  0
   -2.0502    3.6285   -0.0778 C   0  0  0  0  0  0  0  0  0  0  0  0
   -2.4942    3.0358   -1.2443 C   0  0  0  0  0  0  0  0  0  0  0  0
   -3.2882    4.0657   -2.4311 Cl  0  0  0  0  0  0  0  0  0  0  0  0
   -2.3100    1.6827   -1.4488 C   0  0  0  0  0  0  0  0  0  0  0  0
    0.7303   -1.7224    0.6417 C   0  0  0  0  0  0  0  0  0  0  0  0
    1.7335   -1.6351    1.6321 C   0  0  0  0  0  0  0  0  0  0  0  0
  1  2  1  0
  2  3  1  0
  3  4  1  0
  4  5  1  0
  5  6  2  0
  6  7  1  0
  7  8  2  0
  9  8  1  1
  9 10  1  0
 10 11  2  0
 11 12  1  0
 11 13  1  0
 13 14  2  0
 14 15  1  0
 14 16  1  0
 16 17  1  0
 17 18  2  0
 18 19  1  0
 19 20  2  0
 20 21  1  0
 21 22  1  0
 21 23  2  0
  8 24  1  0
 24 25  2  0
 25  5  1  0
 16  9  1  0
 23 17  1  0
M  END
>  <zinc_id>  (972) 
ZINC000013559325

>  <ortholog_name>  (972) 
DRTS_PLAFK

>  <gene_name>  (972) 
DRTS_PLAFK

>  <affinity>  (972) 
8.03

>  <chembldocid>  (972) 
17662

>  <title>  (972) 
None

>  <reference.pubmed_id>  (972) 
14736247

>  <reference.doi>  (972) 
None

>  <reference.chembl_id>  (972) 
CHEMBL1138835

>  <reference.journal>  (972) 
J. Med. Chem.

>  <reference.year>  (972) 
2004

$$$$

     RDKit          3D

 30 33  0  0  0  0  0  0  0  0999 V2000
   -2.2796   -4.8321   -1.5030 N   0  0  0  0  0  0  0  0  0  0  0  0
   -2.3420   -3.4488   -1.0832 C   0  0  0  0  0  0  0  0  0  0  0  0
   -2.2930   -3.2255    0.1216 N   0  0  0  0  0  0  0  0  0  0  0  0
   -2.3330   -1.8224    0.7767 C   0  0  1  0  0  0  0  0  0  0  0  0
   -0.7386   -1.5837    0.7958 C   0  0  0  0  0  0  0  0  0  0  0  0
    0.0580   -2.5858    1.2224 C   0  0  0  0  0  0  0  0  0  0  0  0
    1.4167   -2.3550    1.2256 C   0  0  0  0  0  0  0  0  0  0  0  0
    1.9338   -1.1437    0.8072 C   0  0  0  0  0  0  0  0  0  0  0  0
    1.0801   -0.1311    0.3729 C   0  0  0  0  0  0  0  0  0  0  0  0
    1.6101    1.0828   -0.0456 O   0  0  0  0  0  0  0  0  0  0  0  0
    2.9843    1.2766   -0.0277 C   0  0  0  0  0  0  0  0  0  0  0  0
    3.8163    0.2525    0.4093 C   0  0  0  0  0  0  0  0  0  0  0  0
    5.1786    0.3465    0.4636 C   0  0  0  0  0  0  0  0  0  0  0  0
    6.1757   -0.9762    1.0230 Cl  0  0  0  0  0  0  0  0  0  0  0  0
    5.7776    1.5330    0.0599 C   0  0  0  0  0  0  0  0  0  0  0  0
    4.9547    2.5627   -0.3787 C   0  0  0  0  0  0  0  0  0  0  0  0
    5.7809    4.0408   -0.8764 Cl  0  0  0  0  0  0  0  0  0  0  0  0
    3.5839    2.4439   -0.4243 C   0  0  0  0  0  0  0  0  0  0  0  0
   -0.2464   -0.4114    0.3904 C   0  0  0  0  0  0  0  0  0  0  0  0
   -2.7163   -0.9127   -0.4284 N   0  0  0  0  0  0  0  0  0  0  0  0
   -3.1301    0.4067   -0.0068 C   0  0  0  0  0  0  0  0  0  0  0  0
   -4.4501    0.5637    0.3428 C   0  0  0  0  0  0  0  0  0  0  0  0
   -4.9200    1.8087    0.7466 C   0  0  0  0  0  0  0  0  0  0  0  0
   -4.0353    2.8583    0.7837 C   0  0  0  0  0  0  0  0  0  0  0  0
   -2.7154    2.7197    0.4385 C   0  0  0  0  0  0  0  0  0  0  0  0
   -1.6466    4.0796    0.5048 Cl  0  0  0  0  0  0  0  0  0  0  0  0
   -2.2942    1.4643    0.0437 C   0  0  0  0  0  0  0  0  0  0  0  0
   -2.7224   -1.2904   -1.7398 C   0  0  0  0  0  0  0  0  0  0  0  0
   -2.9349   -0.2237   -2.6988 N   0  0  0  0  0  0  0  0  0  0  0  0
   -2.5529   -2.4971   -2.1089 N   0  0  0  0  0  0  0  0  0  0  0  0
  1  2  1  0
  2  3  2  0
  3  4  1  0
  4  5  1  6
  5  6  2  0
  6  7  1  0
  7  8  2  0
  8  9  1  0
  9 10  1  0
 10 11  1  0
 11 12  2  0
 12 13  1  0
 13 14  1  0
 13 15  2  0
 15 16  1  0
 16 17  1  0
 16 18  2  0
  9 19  2  0
  4 20  1  0
 20 21  1  0
 21 22  2  0
 22 23  1  0
 23 24  2  0
 24 25  1  0
 25 26  1  0
 25 27  2  0
 20 28  1  0
 28 29  1  0
 28 30  2  0
 30  2  1  0
 19  5  1  0
 27 21  1  0
 18 11  1  0
M  END
>  <zinc_id>  (973) 
ZINC000013559326

>  <ortholog_name>  (973) 
DRTS_PLAFK

>  <gene_name>  (973) 
DRTS_PLAFK

>  <affinity>  (973) 
9.22

>  <chembldocid>  (973) 
17662

>  <title>  (973) 
None

>  <reference.pubmed_id>  (973) 
14736247

>  <reference.doi>  (973) 
None

>  <reference.chembl_id>  (973) 
CHEMBL1138835

>  <reference.journal>  (973) 
J. Med. Chem.

>  <reference.year>  (973) 
2004

$$$$

     RDKit          3D

 30 33  0  0  0  0  0  0  0  0999 V2000
   -2.2796   -4.8321   -1.5030 N   0  0  0  0  0  0  0  0  0  0  0  0
   -2.3420   -3.4488   -1.0832 C   0  0  0  0  0  0  0  0  0  0  0  0
   -2.2930   -3.2255    0.1216 N   0  0  0  0  0  0  0  0  0  0  0  0
   -2.3330   -1.8224    0.7767 C   0  0  1  0  0  0  0  0  0  0  0  0
   -0.7386   -1.5837    0.7958 C   0  0  0  0  0  0  0  0  0  0  0  0
    0.0580   -2.5858    1.2224 C   0  0  0  0  0  0  0  0  0  0  0  0
    1.4167   -2.3550    1.2256 C   0  0  0  0  0  0  0  0  0  0  0  0
    1.9338   -1.1437    0.8072 C   0  0  0  0  0  0  0  0  0  0  0  0
    1.0801   -0.1311    0.3729 C   0  0  0  0  0  0  0  0  0  0  0  0
    1.6101    1.0828   -0.0456 O   0  0  0  0  0  0  0  0  0  0  0  0
    2.9843    1.2766   -0.0277 C   0  0  0  0  0  0  0  0  0  0  0  0
    3.8163    0.2525    0.4093 C   0  0  0  0  0  0  0  0  0  0  0  0
    5.1786    0.3465    0.4636 C   0  0  0  0  0  0  0  0  0  0  0  0
    6.1757   -0.9762    1.0230 Cl  0  0  0  0  0  0  0  0  0  0  0  0
    5.7776    1.5330    0.0599 C   0  0  0  0  0  0  0  0  0  0  0  0
    4.9547    2.5627   -0.3787 C   0  0  0  0  0  0  0  0  0  0  0  0
    5.7809    4.0408   -0.8764 Cl  0  0  0  0  0  0  0  0  0  0  0  0
    3.5839    2.4439   -0.4243 C   0  0  0  0  0  0  0  0  0  0  0  0
   -0.2464   -0.4114    0.3904 C   0  0  0  0  0  0  0  0  0  0  0  0
   -2.7163   -0.9127   -0.4284 N   0  0  0  0  0  0  0  0  0  0  0  0
   -3.1301    0.4067   -0.0068 C   0  0  0  0  0  0  0  0  0  0  0  0
   -4.4501    0.5637    0.3428 C   0  0  0  0  0  0  0  0  0  0  0  0
   -4.9200    1.8087    0.7466 C   0  0  0  0  0  0  0  0  0  0  0  0
   -4.0353    2.8583    0.7837 C   0  0  0  0  0  0  0  0  0  0  0  0
   -2.7154    2.7197    0.4385 C   0  0  0  0  0  0  0  0  0  0  0  0
   -1.6466    4.0796    0.5048 Cl  0  0  0  0  0  0  0  0  0  0  0  0
   -2.2942    1.4643    0.0437 C   0  0  0  0  0  0  0  0  0  0  0  0
   -2.7224   -1.2904   -1.7398 C   0  0  0  0  0  0  0  0  0  0  0  0
   -2.9349   -0.2237   -2.6988 N   0  0  0  0  0  0  0  0  0  0  0  0
   -2.5529   -2.4971   -2.1089 N   0  0  0  0  0  0  0  0  0  0  0  0
  1  2  1  0
  2  3  2  0
  3  4  1  0
  4  5  1  6
  5  6  2  0
  6  7  1  0
  7  8  2  0
  8  9  1  0
  9 10  1  0
 10 11  1  0
 11 12  2  0
 12 13  1  0
 13 14  1  0
 13 15  2  0
 15 16  1  0
 16 17  1  0
 16 18  2  0
  9 19  2  0
  4 20  1  0
 20 21  1  0
 21 22  2  0
 22 23  1  0
 23 24  2  0
 24 25  1  0
 25 26  1  0
 25 27  2  0
 20 28  1  0
 28 29  1  0
 28 30  2  0
 30  2  1  0
 19  5  1  0
 27 21  1  0
 18 11  1  0
M  END
>  <zinc_id>  (974) 
ZINC000013559326

>  <ortholog_name>  (974) 
DRTS_PLAFK

>  <gene_name>  (974) 
DRTS_PLAFK

>  <affinity>  (974) 
9.00

>  <chembldocid>  (974) 
17662

>  <title>  (974) 
None

>  <reference.pubmed_id>  (974) 
14736247

>  <reference.doi>  (974) 
None

>  <reference.chembl_id>  (974) 
CHEMBL1138835

>  <reference.journal>  (974) 
J. Med. Chem.

>  <reference.year>  (974) 
2004

$$$$

     RDKit          3D

 30 33  0  0  0  0  0  0  0  0999 V2000
   -2.2796   -4.8321   -1.5030 N   0  0  0  0  0  0  0  0  0  0  0  0
   -2.3420   -3.4488   -1.0832 C   0  0  0  0  0  0  0  0  0  0  0  0
   -2.2930   -3.2255    0.1216 N   0  0  0  0  0  0  0  0  0  0  0  0
   -2.3330   -1.8224    0.7767 C   0  0  1  0  0  0  0  0  0  0  0  0
   -0.7386   -1.5837    0.7958 C   0  0  0  0  0  0  0  0  0  0  0  0
    0.0580   -2.5858    1.2224 C   0  0  0  0  0  0  0  0  0  0  0  0
    1.4167   -2.3550    1.2256 C   0  0  0  0  0  0  0  0  0  0  0  0
    1.9338   -1.1437    0.8072 C   0  0  0  0  0  0  0  0  0  0  0  0
    1.0801   -0.1311    0.3729 C   0  0  0  0  0  0  0  0  0  0  0  0
    1.6101    1.0828   -0.0456 O   0  0  0  0  0  0  0  0  0  0  0  0
    2.9843    1.2766   -0.0277 C   0  0  0  0  0  0  0  0  0  0  0  0
    3.8163    0.2525    0.4093 C   0  0  0  0  0  0  0  0  0  0  0  0
    5.1786    0.3465    0.4636 C   0  0  0  0  0  0  0  0  0  0  0  0
    6.1757   -0.9762    1.0230 Cl  0  0  0  0  0  0  0  0  0  0  0  0
    5.7776    1.5330    0.0599 C   0  0  0  0  0  0  0  0  0  0  0  0
    4.9547    2.5627   -0.3787 C   0  0  0  0  0  0  0  0  0  0  0  0
    5.7809    4.0408   -0.8764 Cl  0  0  0  0  0  0  0  0  0  0  0  0
    3.5839    2.4439   -0.4243 C   0  0  0  0  0  0  0  0  0  0  0  0
   -0.2464   -0.4114    0.3904 C   0  0  0  0  0  0  0  0  0  0  0  0
   -2.7163   -0.9127   -0.4284 N   0  0  0  0  0  0  0  0  0  0  0  0
   -3.1301    0.4067   -0.0068 C   0  0  0  0  0  0  0  0  0  0  0  0
   -4.4501    0.5637    0.3428 C   0  0  0  0  0  0  0  0  0  0  0  0
   -4.9200    1.8087    0.7466 C   0  0  0  0  0  0  0  0  0  0  0  0
   -4.0353    2.8583    0.7837 C   0  0  0  0  0  0  0  0  0  0  0  0
   -2.7154    2.7197    0.4385 C   0  0  0  0  0  0  0  0  0  0  0  0
   -1.6466    4.0796    0.5048 Cl  0  0  0  0  0  0  0  0  0  0  0  0
   -2.2942    1.4643    0.0437 C   0  0  0  0  0  0  0  0  0  0  0  0
   -2.7224   -1.2904   -1.7398 C   0  0  0  0  0  0  0  0  0  0  0  0
   -2.9349   -0.2237   -2.6988 N   0  0  0  0  0  0  0  0  0  0  0  0
   -2.5529   -2.4971   -2.1089 N   0  0  0  0  0  0  0  0  0  0  0  0
  1  2  1  0
  2  3  2  0
  3  4  1  0
  4  5  1  6
  5  6  2  0
  6  7  1  0
  7  8  2  0
  8  9  1  0
  9 10  1  0
 10 11  1  0
 11 12  2  0
 12 13  1  0
 13 14  1  0
 13 15  2  0
 15 16  1  0
 16 17  1  0
 16 18  2  0
  9 19  2  0
  4 20  1  0
 20 21  1  0
 21 22  2  0
 22 23  1  0
 23 24  2  0
 24 25  1  0
 25 26  1  0
 25 27  2  0
 20 28  1  0
 28 29  1  0
 28 30  2  0
 30  2  1  0
 19  5  1  0
 27 21  1  0
 18 11  1  0
M  END
>  <zinc_id>  (975) 
ZINC000013559326

>  <ortholog_name>  (975) 
DRTS_PLAFK

>  <gene_name>  (975) 
DRTS_PLAFK

>  <affinity>  (975) 
8.74

>  <chembldocid>  (975) 
17662

>  <title>  (975) 
None

>  <reference.pubmed_id>  (975) 
14736247

>  <reference.doi>  (975) 
None

>  <reference.chembl_id>  (975) 
CHEMBL1138835

>  <reference.journal>  (975) 
J. Med. Chem.

>  <reference.year>  (975) 
2004

$$$$

     RDKit          3D

 30 33  0  0  0  0  0  0  0  0999 V2000
   -2.2796   -4.8321   -1.5030 N   0  0  0  0  0  0  0  0  0  0  0  0
   -2.3420   -3.4488   -1.0832 C   0  0  0  0  0  0  0  0  0  0  0  0
   -2.2930   -3.2255    0.1216 N   0  0  0  0  0  0  0  0  0  0  0  0
   -2.3330   -1.8224    0.7767 C   0  0  1  0  0  0  0  0  0  0  0  0
   -0.7386   -1.5837    0.7958 C   0  0  0  0  0  0  0  0  0  0  0  0
    0.0580   -2.5858    1.2224 C   0  0  0  0  0  0  0  0  0  0  0  0
    1.4167   -2.3550    1.2256 C   0  0  0  0  0  0  0  0  0  0  0  0
    1.9338   -1.1437    0.8072 C   0  0  0  0  0  0  0  0  0  0  0  0
    1.0801   -0.1311    0.3729 C   0  0  0  0  0  0  0  0  0  0  0  0
    1.6101    1.0828   -0.0456 O   0  0  0  0  0  0  0  0  0  0  0  0
    2.9843    1.2766   -0.0277 C   0  0  0  0  0  0  0  0  0  0  0  0
    3.8163    0.2525    0.4093 C   0  0  0  0  0  0  0  0  0  0  0  0
    5.1786    0.3465    0.4636 C   0  0  0  0  0  0  0  0  0  0  0  0
    6.1757   -0.9762    1.0230 Cl  0  0  0  0  0  0  0  0  0  0  0  0
    5.7776    1.5330    0.0599 C   0  0  0  0  0  0  0  0  0  0  0  0
    4.9547    2.5627   -0.3787 C   0  0  0  0  0  0  0  0  0  0  0  0
    5.7809    4.0408   -0.8764 Cl  0  0  0  0  0  0  0  0  0  0  0  0
    3.5839    2.4439   -0.4243 C   0  0  0  0  0  0  0  0  0  0  0  0
   -0.2464   -0.4114    0.3904 C   0  0  0  0  0  0  0  0  0  0  0  0
   -2.7163   -0.9127   -0.4284 N   0  0  0  0  0  0  0  0  0  0  0  0
   -3.1301    0.4067   -0.0068 C   0  0  0  0  0  0  0  0  0  0  0  0
   -4.4501    0.5637    0.3428 C   0  0  0  0  0  0  0  0  0  0  0  0
   -4.9200    1.8087    0.7466 C   0  0  0  0  0  0  0  0  0  0  0  0
   -4.0353    2.8583    0.7837 C   0  0  0  0  0  0  0  0  0  0  0  0
   -2.7154    2.7197    0.4385 C   0  0  0  0  0  0  0  0  0  0  0  0
   -1.6466    4.0796    0.5048 Cl  0  0  0  0  0  0  0  0  0  0  0  0
   -2.2942    1.4643    0.0437 C   0  0  0  0  0  0  0  0  0  0  0  0
   -2.7224   -1.2904   -1.7398 C   0  0  0  0  0  0  0  0  0  0  0  0
   -2.9349   -0.2237   -2.6988 N   0  0  0  0  0  0  0  0  0  0  0  0
   -2.5529   -2.4971   -2.1089 N   0  0  0  0  0  0  0  0  0  0  0  0
  1  2  1  0
  2  3  2  0
  3  4  1  0
  4  5  1  6
  5  6  2  0
  6  7  1  0
  7  8  2  0
  8  9  1  0
  9 10  1  0
 10 11  1  0
 11 12  2  0
 12 13  1  0
 13 14  1  0
 13 15  2  0
 15 16  1  0
 16 17  1  0
 16 18  2  0
  9 19  2  0
  4 20  1  0
 20 21  1  0
 21 22  2  0
 22 23  1  0
 23 24  2  0
 24 25  1  0
 25 26  1  0
 25 27  2  0
 20 28  1  0
 28 29  1  0
 28 30  2  0
 30  2  1  0
 19  5  1  0
 27 21  1  0
 18 11  1  0
M  END
>  <zinc_id>  (976) 
ZINC000013559326

>  <ortholog_name>  (976) 
DRTS_PLAFK

>  <gene_name>  (976) 
DRTS_PLAFK

>  <affinity>  (976) 
8.57

>  <chembldocid>  (976) 
17662

>  <title>  (976) 
None

>  <reference.pubmed_id>  (976) 
14736247

>  <reference.doi>  (976) 
None

>  <reference.chembl_id>  (976) 
CHEMBL1138835

>  <reference.journal>  (976) 
J. Med. Chem.

>  <reference.year>  (976) 
2004

$$$$

     RDKit          3D

 30 33  0  0  0  0  0  0  0  0999 V2000
   -2.2796   -4.8321   -1.5030 N   0  0  0  0  0  0  0  0  0  0  0  0
   -2.3420   -3.4488   -1.0832 C   0  0  0  0  0  0  0  0  0  0  0  0
   -2.2930   -3.2255    0.1216 N   0  0  0  0  0  0  0  0  0  0  0  0
   -2.3330   -1.8224    0.7767 C   0  0  1  0  0  0  0  0  0  0  0  0
   -0.7386   -1.5837    0.7958 C   0  0  0  0  0  0  0  0  0  0  0  0
    0.0580   -2.5858    1.2224 C   0  0  0  0  0  0  0  0  0  0  0  0
    1.4167   -2.3550    1.2256 C   0  0  0  0  0  0  0  0  0  0  0  0
    1.9338   -1.1437    0.8072 C   0  0  0  0  0  0  0  0  0  0  0  0
    1.0801   -0.1311    0.3729 C   0  0  0  0  0  0  0  0  0  0  0  0
    1.6101    1.0828   -0.0456 O   0  0  0  0  0  0  0  0  0  0  0  0
    2.9843    1.2766   -0.0277 C   0  0  0  0  0  0  0  0  0  0  0  0
    3.8163    0.2525    0.4093 C   0  0  0  0  0  0  0  0  0  0  0  0
    5.1786    0.3465    0.4636 C   0  0  0  0  0  0  0  0  0  0  0  0
    6.1757   -0.9762    1.0230 Cl  0  0  0  0  0  0  0  0  0  0  0  0
    5.7776    1.5330    0.0599 C   0  0  0  0  0  0  0  0  0  0  0  0
    4.9547    2.5627   -0.3787 C   0  0  0  0  0  0  0  0  0  0  0  0
    5.7809    4.0408   -0.8764 Cl  0  0  0  0  0  0  0  0  0  0  0  0
    3.5839    2.4439   -0.4243 C   0  0  0  0  0  0  0  0  0  0  0  0
   -0.2464   -0.4114    0.3904 C   0  0  0  0  0  0  0  0  0  0  0  0
   -2.7163   -0.9127   -0.4284 N   0  0  0  0  0  0  0  0  0  0  0  0
   -3.1301    0.4067   -0.0068 C   0  0  0  0  0  0  0  0  0  0  0  0
   -4.4501    0.5637    0.3428 C   0  0  0  0  0  0  0  0  0  0  0  0
   -4.9200    1.8087    0.7466 C   0  0  0  0  0  0  0  0  0  0  0  0
   -4.0353    2.8583    0.7837 C   0  0  0  0  0  0  0  0  0  0  0  0
   -2.7154    2.7197    0.4385 C   0  0  0  0  0  0  0  0  0  0  0  0
   -1.6466    4.0796    0.5048 Cl  0  0  0  0  0  0  0  0  0  0  0  0
   -2.2942    1.4643    0.0437 C   0  0  0  0  0  0  0  0  0  0  0  0
   -2.7224   -1.2904   -1.7398 C   0  0  0  0  0  0  0  0  0  0  0  0
   -2.9349   -0.2237   -2.6988 N   0  0  0  0  0  0  0  0  0  0  0  0
   -2.5529   -2.4971   -2.1089 N   0  0  0  0  0  0  0  0  0  0  0  0
  1  2  1  0
  2  3  2  0
  3  4  1  0
  4  5  1  6
  5  6  2  0
  6  7  1  0
  7  8  2  0
  8  9  1  0
  9 10  1  0
 10 11  1  0
 11 12  2  0
 12 13  1  0
 13 14  1  0
 13 15  2  0
 15 16  1  0
 16 17  1  0
 16 18  2  0
  9 19  2  0
  4 20  1  0
 20 21  1  0
 21 22  2  0
 22 23  1  0
 23 24  2  0
 24 25  1  0
 25 26  1  0
 25 27  2  0
 20 28  1  0
 28 29  1  0
 28 30  2  0
 30  2  1  0
 19  5  1  0
 27 21  1  0
 18 11  1  0
M  END
>  <zinc_id>  (977) 
ZINC000013559326

>  <ortholog_name>  (977) 
DRTS_PLAFK

>  <gene_name>  (977) 
DRTS_PLAFK

>  <affinity>  (977) 
5.51

>  <chembldocid>  (977) 
17662

>  <title>  (977) 
None

>  <reference.pubmed_id>  (977) 
14736247

>  <reference.doi>  (977) 
None

>  <reference.chembl_id>  (977) 
CHEMBL1138835

>  <reference.journal>  (977) 
J. Med. Chem.

>  <reference.year>  (977) 
2004

$$$$

     RDKit          3D

 30 33  0  0  0  0  0  0  0  0999 V2000
   -2.2796   -4.8321   -1.5030 N   0  0  0  0  0  0  0  0  0  0  0  0
   -2.3420   -3.4488   -1.0832 C   0  0  0  0  0  0  0  0  0  0  0  0
   -2.2930   -3.2255    0.1216 N   0  0  0  0  0  0  0  0  0  0  0  0
   -2.3330   -1.8224    0.7767 C   0  0  1  0  0  0  0  0  0  0  0  0
   -0.7386   -1.5837    0.7958 C   0  0  0  0  0  0  0  0  0  0  0  0
    0.0580   -2.5858    1.2224 C   0  0  0  0  0  0  0  0  0  0  0  0
    1.4167   -2.3550    1.2256 C   0  0  0  0  0  0  0  0  0  0  0  0
    1.9338   -1.1437    0.8072 C   0  0  0  0  0  0  0  0  0  0  0  0
    1.0801   -0.1311    0.3729 C   0  0  0  0  0  0  0  0  0  0  0  0
    1.6101    1.0828   -0.0456 O   0  0  0  0  0  0  0  0  0  0  0  0
    2.9843    1.2766   -0.0277 C   0  0  0  0  0  0  0  0  0  0  0  0
    3.8163    0.2525    0.4093 C   0  0  0  0  0  0  0  0  0  0  0  0
    5.1786    0.3465    0.4636 C   0  0  0  0  0  0  0  0  0  0  0  0
    6.1757   -0.9762    1.0230 Cl  0  0  0  0  0  0  0  0  0  0  0  0
    5.7776    1.5330    0.0599 C   0  0  0  0  0  0  0  0  0  0  0  0
    4.9547    2.5627   -0.3787 C   0  0  0  0  0  0  0  0  0  0  0  0
    5.7809    4.0408   -0.8764 Cl  0  0  0  0  0  0  0  0  0  0  0  0
    3.5839    2.4439   -0.4243 C   0  0  0  0  0  0  0  0  0  0  0  0
   -0.2464   -0.4114    0.3904 C   0  0  0  0  0  0  0  0  0  0  0  0
   -2.7163   -0.9127   -0.4284 N   0  0  0  0  0  0  0  0  0  0  0  0
   -3.1301    0.4067   -0.0068 C   0  0  0  0  0  0  0  0  0  0  0  0
   -4.4501    0.5637    0.3428 C   0  0  0  0  0  0  0  0  0  0  0  0
   -4.9200    1.8087    0.7466 C   0  0  0  0  0  0  0  0  0  0  0  0
   -4.0353    2.8583    0.7837 C   0  0  0  0  0  0  0  0  0  0  0  0
   -2.7154    2.7197    0.4385 C   0  0  0  0  0  0  0  0  0  0  0  0
   -1.6466    4.0796    0.5048 Cl  0  0  0  0  0  0  0  0  0  0  0  0
   -2.2942    1.4643    0.0437 C   0  0  0  0  0  0  0  0  0  0  0  0
   -2.7224   -1.2904   -1.7398 C   0  0  0  0  0  0  0  0  0  0  0  0
   -2.9349   -0.2237   -2.6988 N   0  0  0  0  0  0  0  0  0  0  0  0
   -2.5529   -2.4971   -2.1089 N   0  0  0  0  0  0  0  0  0  0  0  0
  1  2  1  0
  2  3  2  0
  3  4  1  0
  4  5  1  6
  5  6  2  0
  6  7  1  0
  7  8  2  0
  8  9  1  0
  9 10  1  0
 10 11  1  0
 11 12  2  0
 12 13  1  0
 13 14  1  0
 13 15  2  0
 15 16  1  0
 16 17  1  0
 16 18  2  0
  9 19  2  0
  4 20  1  0
 20 21  1  0
 21 22  2  0
 22 23  1  0
 23 24  2  0
 24 25  1  0
 25 26  1  0
 25 27  2  0
 20 28  1  0
 28 29  1  0
 28 30  2  0
 30  2  1  0
 19  5  1  0
 27 21  1  0
 18 11  1  0
M  END
>  <zinc_id>  (978) 
ZINC000013559326

>  <ortholog_name>  (978) 
DRTS_PLAFK

>  <gene_name>  (978) 
DRTS_PLAFK

>  <affinity>  (978) 
5.47

>  <chembldocid>  (978) 
17662

>  <title>  (978) 
None

>  <reference.pubmed_id>  (978) 
14736247

>  <reference.doi>  (978) 
None

>  <reference.chembl_id>  (978) 
CHEMBL1138835

>  <reference.journal>  (978) 
J. Med. Chem.

>  <reference.year>  (978) 
2004

$$$$

     RDKit          3D

 30 33  0  0  0  0  0  0  0  0999 V2000
   -2.2796   -4.8321   -1.5030 N   0  0  0  0  0  0  0  0  0  0  0  0
   -2.3420   -3.4488   -1.0832 C   0  0  0  0  0  0  0  0  0  0  0  0
   -2.2930   -3.2255    0.1216 N   0  0  0  0  0  0  0  0  0  0  0  0
   -2.3330   -1.8224    0.7767 C   0  0  1  0  0  0  0  0  0  0  0  0
   -0.7386   -1.5837    0.7958 C   0  0  0  0  0  0  0  0  0  0  0  0
    0.0580   -2.5858    1.2224 C   0  0  0  0  0  0  0  0  0  0  0  0
    1.4167   -2.3550    1.2256 C   0  0  0  0  0  0  0  0  0  0  0  0
    1.9338   -1.1437    0.8072 C   0  0  0  0  0  0  0  0  0  0  0  0
    1.0801   -0.1311    0.3729 C   0  0  0  0  0  0  0  0  0  0  0  0
    1.6101    1.0828   -0.0456 O   0  0  0  0  0  0  0  0  0  0  0  0
    2.9843    1.2766   -0.0277 C   0  0  0  0  0  0  0  0  0  0  0  0
    3.8163    0.2525    0.4093 C   0  0  0  0  0  0  0  0  0  0  0  0
    5.1786    0.3465    0.4636 C   0  0  0  0  0  0  0  0  0  0  0  0
    6.1757   -0.9762    1.0230 Cl  0  0  0  0  0  0  0  0  0  0  0  0
    5.7776    1.5330    0.0599 C   0  0  0  0  0  0  0  0  0  0  0  0
    4.9547    2.5627   -0.3787 C   0  0  0  0  0  0  0  0  0  0  0  0
    5.7809    4.0408   -0.8764 Cl  0  0  0  0  0  0  0  0  0  0  0  0
    3.5839    2.4439   -0.4243 C   0  0  0  0  0  0  0  0  0  0  0  0
   -0.2464   -0.4114    0.3904 C   0  0  0  0  0  0  0  0  0  0  0  0
   -2.7163   -0.9127   -0.4284 N   0  0  0  0  0  0  0  0  0  0  0  0
   -3.1301    0.4067   -0.0068 C   0  0  0  0  0  0  0  0  0  0  0  0
   -4.4501    0.5637    0.3428 C   0  0  0  0  0  0  0  0  0  0  0  0
   -4.9200    1.8087    0.7466 C   0  0  0  0  0  0  0  0  0  0  0  0
   -4.0353    2.8583    0.7837 C   0  0  0  0  0  0  0  0  0  0  0  0
   -2.7154    2.7197    0.4385 C   0  0  0  0  0  0  0  0  0  0  0  0
   -1.6466    4.0796    0.5048 Cl  0  0  0  0  0  0  0  0  0  0  0  0
   -2.2942    1.4643    0.0437 C   0  0  0  0  0  0  0  0  0  0  0  0
   -2.7224   -1.2904   -1.7398 C   0  0  0  0  0  0  0  0  0  0  0  0
   -2.9349   -0.2237   -2.6988 N   0  0  0  0  0  0  0  0  0  0  0  0
   -2.5529   -2.4971   -2.1089 N   0  0  0  0  0  0  0  0  0  0  0  0
  1  2  1  0
  2  3  2  0
  3  4  1  0
  4  5  1  6
  5  6  2  0
  6  7  1  0
  7  8  2  0
  8  9  1  0
  9 10  1  0
 10 11  1  0
 11 12  2  0
 12 13  1  0
 13 14  1  0
 13 15  2  0
 15 16  1  0
 16 17  1  0
 16 18  2  0
  9 19  2  0
  4 20  1  0
 20 21  1  0
 21 22  2  0
 22 23  1  0
 23 24  2  0
 24 25  1  0
 25 26  1  0
 25 27  2  0
 20 28  1  0
 28 29  1  0
 28 30  2  0
 30  2  1  0
 19  5  1  0
 27 21  1  0
 18 11  1  0
M  END
>  <zinc_id>  (979) 
ZINC000013559326

>  <ortholog_name>  (979) 
DRTS_PLAFK

>  <gene_name>  (979) 
DRTS_PLAFK

>  <affinity>  (979) 
5.41

>  <chembldocid>  (979) 
17662

>  <title>  (979) 
None

>  <reference.pubmed_id>  (979) 
14736247

>  <reference.doi>  (979) 
None

>  <reference.chembl_id>  (979) 
CHEMBL1138835

>  <reference.journal>  (979) 
J. Med. Chem.

>  <reference.year>  (979) 
2004

$$$$

     RDKit          3D

 30 33  0  0  0  0  0  0  0  0999 V2000
   -2.2796   -4.8321   -1.5030 N   0  0  0  0  0  0  0  0  0  0  0  0
   -2.3420   -3.4488   -1.0832 C   0  0  0  0  0  0  0  0  0  0  0  0
   -2.2930   -3.2255    0.1216 N   0  0  0  0  0  0  0  0  0  0  0  0
   -2.3330   -1.8224    0.7767 C   0  0  1  0  0  0  0  0  0  0  0  0
   -0.7386   -1.5837    0.7958 C   0  0  0  0  0  0  0  0  0  0  0  0
    0.0580   -2.5858    1.2224 C   0  0  0  0  0  0  0  0  0  0  0  0
    1.4167   -2.3550    1.2256 C   0  0  0  0  0  0  0  0  0  0  0  0
    1.9338   -1.1437    0.8072 C   0  0  0  0  0  0  0  0  0  0  0  0
    1.0801   -0.1311    0.3729 C   0  0  0  0  0  0  0  0  0  0  0  0
    1.6101    1.0828   -0.0456 O   0  0  0  0  0  0  0  0  0  0  0  0
    2.9843    1.2766   -0.0277 C   0  0  0  0  0  0  0  0  0  0  0  0
    3.8163    0.2525    0.4093 C   0  0  0  0  0  0  0  0  0  0  0  0
    5.1786    0.3465    0.4636 C   0  0  0  0  0  0  0  0  0  0  0  0
    6.1757   -0.9762    1.0230 Cl  0  0  0  0  0  0  0  0  0  0  0  0
    5.7776    1.5330    0.0599 C   0  0  0  0  0  0  0  0  0  0  0  0
    4.9547    2.5627   -0.3787 C   0  0  0  0  0  0  0  0  0  0  0  0
    5.7809    4.0408   -0.8764 Cl  0  0  0  0  0  0  0  0  0  0  0  0
    3.5839    2.4439   -0.4243 C   0  0  0  0  0  0  0  0  0  0  0  0
   -0.2464   -0.4114    0.3904 C   0  0  0  0  0  0  0  0  0  0  0  0
   -2.7163   -0.9127   -0.4284 N   0  0  0  0  0  0  0  0  0  0  0  0
   -3.1301    0.4067   -0.0068 C   0  0  0  0  0  0  0  0  0  0  0  0
   -4.4501    0.5637    0.3428 C   0  0  0  0  0  0  0  0  0  0  0  0
   -4.9200    1.8087    0.7466 C   0  0  0  0  0  0  0  0  0  0  0  0
   -4.0353    2.8583    0.7837 C   0  0  0  0  0  0  0  0  0  0  0  0
   -2.7154    2.7197    0.4385 C   0  0  0  0  0  0  0  0  0  0  0  0
   -1.6466    4.0796    0.5048 Cl  0  0  0  0  0  0  0  0  0  0  0  0
   -2.2942    1.4643    0.0437 C   0  0  0  0  0  0  0  0  0  0  0  0
   -2.7224   -1.2904   -1.7398 C   0  0  0  0  0  0  0  0  0  0  0  0
   -2.9349   -0.2237   -2.6988 N   0  0  0  0  0  0  0  0  0  0  0  0
   -2.5529   -2.4971   -2.1089 N   0  0  0  0  0  0  0  0  0  0  0  0
  1  2  1  0
  2  3  2  0
  3  4  1  0
  4  5  1  6
  5  6  2  0
  6  7  1  0
  7  8  2  0
  8  9  1  0
  9 10  1  0
 10 11  1  0
 11 12  2  0
 12 13  1  0
 13 14  1  0
 13 15  2  0
 15 16  1  0
 16 17  1  0
 16 18  2  0
  9 19  2  0
  4 20  1  0
 20 21  1  0
 21 22  2  0
 22 23  1  0
 23 24  2  0
 24 25  1  0
 25 26  1  0
 25 27  2  0
 20 28  1  0
 28 29  1  0
 28 30  2  0
 30  2  1  0
 19  5  1  0
 27 21  1  0
 18 11  1  0
M  END
>  <zinc_id>  (980) 
ZINC000013559326

>  <ortholog_name>  (980) 
DRTS_PLAFK

>  <gene_name>  (980) 
DRTS_PLAFK

>  <affinity>  (980) 
8.33

>  <chembldocid>  (980) 
17662

>  <title>  (980) 
None

>  <reference.pubmed_id>  (980) 
14736247

>  <reference.doi>  (980) 
None

>  <reference.chembl_id>  (980) 
CHEMBL1138835

>  <reference.journal>  (980) 
J. Med. Chem.

>  <reference.year>  (980) 
2004

$$$$

     RDKit          3D

 30 33  0  0  0  0  0  0  0  0999 V2000
   -2.2796   -4.8321   -1.5030 N   0  0  0  0  0  0  0  0  0  0  0  0
   -2.3420   -3.4488   -1.0832 C   0  0  0  0  0  0  0  0  0  0  0  0
   -2.2930   -3.2255    0.1216 N   0  0  0  0  0  0  0  0  0  0  0  0
   -2.3330   -1.8224    0.7767 C   0  0  1  0  0  0  0  0  0  0  0  0
   -0.7386   -1.5837    0.7958 C   0  0  0  0  0  0  0  0  0  0  0  0
    0.0580   -2.5858    1.2224 C   0  0  0  0  0  0  0  0  0  0  0  0
    1.4167   -2.3550    1.2256 C   0  0  0  0  0  0  0  0  0  0  0  0
    1.9338   -1.1437    0.8072 C   0  0  0  0  0  0  0  0  0  0  0  0
    1.0801   -0.1311    0.3729 C   0  0  0  0  0  0  0  0  0  0  0  0
    1.6101    1.0828   -0.0456 O   0  0  0  0  0  0  0  0  0  0  0  0
    2.9843    1.2766   -0.0277 C   0  0  0  0  0  0  0  0  0  0  0  0
    3.8163    0.2525    0.4093 C   0  0  0  0  0  0  0  0  0  0  0  0
    5.1786    0.3465    0.4636 C   0  0  0  0  0  0  0  0  0  0  0  0
    6.1757   -0.9762    1.0230 Cl  0  0  0  0  0  0  0  0  0  0  0  0
    5.7776    1.5330    0.0599 C   0  0  0  0  0  0  0  0  0  0  0  0
    4.9547    2.5627   -0.3787 C   0  0  0  0  0  0  0  0  0  0  0  0
    5.7809    4.0408   -0.8764 Cl  0  0  0  0  0  0  0  0  0  0  0  0
    3.5839    2.4439   -0.4243 C   0  0  0  0  0  0  0  0  0  0  0  0
   -0.2464   -0.4114    0.3904 C   0  0  0  0  0  0  0  0  0  0  0  0
   -2.7163   -0.9127   -0.4284 N   0  0  0  0  0  0  0  0  0  0  0  0
   -3.1301    0.4067   -0.0068 C   0  0  0  0  0  0  0  0  0  0  0  0
   -4.4501    0.5637    0.3428 C   0  0  0  0  0  0  0  0  0  0  0  0
   -4.9200    1.8087    0.7466 C   0  0  0  0  0  0  0  0  0  0  0  0
   -4.0353    2.8583    0.7837 C   0  0  0  0  0  0  0  0  0  0  0  0
   -2.7154    2.7197    0.4385 C   0  0  0  0  0  0  0  0  0  0  0  0
   -1.6466    4.0796    0.5048 Cl  0  0  0  0  0  0  0  0  0  0  0  0
   -2.2942    1.4643    0.0437 C   0  0  0  0  0  0  0  0  0  0  0  0
   -2.7224   -1.2904   -1.7398 C   0  0  0  0  0  0  0  0  0  0  0  0
   -2.9349   -0.2237   -2.6988 N   0  0  0  0  0  0  0  0  0  0  0  0
   -2.5529   -2.4971   -2.1089 N   0  0  0  0  0  0  0  0  0  0  0  0
  1  2  1  0
  2  3  2  0
  3  4  1  0
  4  5  1  6
  5  6  2  0
  6  7  1  0
  7  8  2  0
  8  9  1  0
  9 10  1  0
 10 11  1  0
 11 12  2  0
 12 13  1  0
 13 14  1  0
 13 15  2  0
 15 16  1  0
 16 17  1  0
 16 18  2  0
  9 19  2  0
  4 20  1  0
 20 21  1  0
 21 22  2  0
 22 23  1  0
 23 24  2  0
 24 25  1  0
 25 26  1  0
 25 27  2  0
 20 28  1  0
 28 29  1  0
 28 30  2  0
 30  2  1  0
 19  5  1  0
 27 21  1  0
 18 11  1  0
M  END
>  <zinc_id>  (981) 
ZINC000013559326

>  <ortholog_name>  (981) 
DRTS_PLAFK

>  <gene_name>  (981) 
DRTS_PLAFK

>  <affinity>  (981) 
7.30

>  <chembldocid>  (981) 
17662

>  <title>  (981) 
None

>  <reference.pubmed_id>  (981) 
14736247

>  <reference.doi>  (981) 
None

>  <reference.chembl_id>  (981) 
CHEMBL1138835

>  <reference.journal>  (981) 
J. Med. Chem.

>  <reference.year>  (981) 
2004

$$$$

     RDKit          3D

 30 33  0  0  0  0  0  0  0  0999 V2000
   -2.2796   -4.8321   -1.5030 N   0  0  0  0  0  0  0  0  0  0  0  0
   -2.3420   -3.4488   -1.0832 C   0  0  0  0  0  0  0  0  0  0  0  0
   -2.2930   -3.2255    0.1216 N   0  0  0  0  0  0  0  0  0  0  0  0
   -2.3330   -1.8224    0.7767 C   0  0  1  0  0  0  0  0  0  0  0  0
   -0.7386   -1.5837    0.7958 C   0  0  0  0  0  0  0  0  0  0  0  0
    0.0580   -2.5858    1.2224 C   0  0  0  0  0  0  0  0  0  0  0  0
    1.4167   -2.3550    1.2256 C   0  0  0  0  0  0  0  0  0  0  0  0
    1.9338   -1.1437    0.8072 C   0  0  0  0  0  0  0  0  0  0  0  0
    1.0801   -0.1311    0.3729 C   0  0  0  0  0  0  0  0  0  0  0  0
    1.6101    1.0828   -0.0456 O   0  0  0  0  0  0  0  0  0  0  0  0
    2.9843    1.2766   -0.0277 C   0  0  0  0  0  0  0  0  0  0  0  0
    3.8163    0.2525    0.4093 C   0  0  0  0  0  0  0  0  0  0  0  0
    5.1786    0.3465    0.4636 C   0  0  0  0  0  0  0  0  0  0  0  0
    6.1757   -0.9762    1.0230 Cl  0  0  0  0  0  0  0  0  0  0  0  0
    5.7776    1.5330    0.0599 C   0  0  0  0  0  0  0  0  0  0  0  0
    4.9547    2.5627   -0.3787 C   0  0  0  0  0  0  0  0  0  0  0  0
    5.7809    4.0408   -0.8764 Cl  0  0  0  0  0  0  0  0  0  0  0  0
    3.5839    2.4439   -0.4243 C   0  0  0  0  0  0  0  0  0  0  0  0
   -0.2464   -0.4114    0.3904 C   0  0  0  0  0  0  0  0  0  0  0  0
   -2.7163   -0.9127   -0.4284 N   0  0  0  0  0  0  0  0  0  0  0  0
   -3.1301    0.4067   -0.0068 C   0  0  0  0  0  0  0  0  0  0  0  0
   -4.4501    0.5637    0.3428 C   0  0  0  0  0  0  0  0  0  0  0  0
   -4.9200    1.8087    0.7466 C   0  0  0  0  0  0  0  0  0  0  0  0
   -4.0353    2.8583    0.7837 C   0  0  0  0  0  0  0  0  0  0  0  0
   -2.7154    2.7197    0.4385 C   0  0  0  0  0  0  0  0  0  0  0  0
   -1.6466    4.0796    0.5048 Cl  0  0  0  0  0  0  0  0  0  0  0  0
   -2.2942    1.4643    0.0437 C   0  0  0  0  0  0  0  0  0  0  0  0
   -2.7224   -1.2904   -1.7398 C   0  0  0  0  0  0  0  0  0  0  0  0
   -2.9349   -0.2237   -2.6988 N   0  0  0  0  0  0  0  0  0  0  0  0
   -2.5529   -2.4971   -2.1089 N   0  0  0  0  0  0  0  0  0  0  0  0
  1  2  1  0
  2  3  2  0
  3  4  1  0
  4  5  1  6
  5  6  2  0
  6  7  1  0
  7  8  2  0
  8  9  1  0
  9 10  1  0
 10 11  1  0
 11 12  2  0
 12 13  1  0
 13 14  1  0
 13 15  2  0
 15 16  1  0
 16 17  1  0
 16 18  2  0
  9 19  2  0
  4 20  1  0
 20 21  1  0
 21 22  2  0
 22 23  1  0
 23 24  2  0
 24 25  1  0
 25 26  1  0
 25 27  2  0
 20 28  1  0
 28 29  1  0
 28 30  2  0
 30  2  1  0
 19  5  1  0
 27 21  1  0
 18 11  1  0
M  END
>  <zinc_id>  (982) 
ZINC000013559326

>  <ortholog_name>  (982) 
DRTS_PLAFK

>  <gene_name>  (982) 
DRTS_PLAFK

>  <affinity>  (982) 
5.26

>  <chembldocid>  (982) 
17662

>  <title>  (982) 
None

>  <reference.pubmed_id>  (982) 
14736247

>  <reference.doi>  (982) 
None

>  <reference.chembl_id>  (982) 
CHEMBL1138835

>  <reference.journal>  (982) 
J. Med. Chem.

>  <reference.year>  (982) 
2004

$$$$

     RDKit          3D

 30 33  0  0  0  0  0  0  0  0999 V2000
   -2.1157   -5.1973    0.1017 N   0  0  0  0  0  0  0  0  0  0  0  0
   -2.2764   -3.7503    0.1830 C   0  0  0  0  0  0  0  0  0  0  0  0
   -2.1087   -3.1618   -0.8726 N   0  0  0  0  0  0  0  0  0  0  0  0
   -2.1910   -1.6451   -1.1488 C   0  0  2  0  0  0  0  0  0  0  0  0
   -0.6168   -1.3229   -0.9817 C   0  0  0  0  0  0  0  0  0  0  0  0
    0.2462   -2.1664   -1.6113 C   0  0  0  0  0  0  0  0  0  0  0  0
    1.6091   -1.9519   -1.5083 C   0  0  0  0  0  0  0  0  0  0  0  0
    2.0375   -0.8622   -0.7508 C   0  0  0  0  0  0  0  0  0  0  0  0
    1.1272   -0.0362   -0.1319 C   0  0  0  0  0  0  0  0  0  0  0  0
    1.6258    1.0234    0.6018 O   0  0  0  0  0  0  0  0  0  0  0  0
    2.9853    1.2562    0.7179 C   0  0  0  0  0  0  0  0  0  0  0  0
    3.7721    0.7217    1.7175 C   0  0  0  0  0  0  0  0  0  0  0  0
    5.1225    0.9884    1.7835 C   0  0  0  0  0  0  0  0  0  0  0  0
    6.1480    0.3230    3.0427 Cl  0  0  0  0  0  0  0  0  0  0  0  0
    5.6995    1.8128    0.8219 C   0  0  0  0  0  0  0  0  0  0  0  0
    4.9230    2.3456   -0.1721 C   0  0  0  0  0  0  0  0  0  0  0  0
    5.6146    3.3831   -1.3934 Cl  0  0  0  0  0  0  0  0  0  0  0  0
    3.5859    2.0697   -0.2208 C   0  0  0  0  0  0  0  0  0  0  0  0
   -0.2208   -0.2854   -0.2601 C   0  0  0  0  0  0  0  0  0  0  0  0
   -2.7280   -1.1131    0.1951 N   0  0  0  0  0  0  0  0  0  0  0  0
   -3.1410    0.2732    0.1718 C   0  0  0  0  0  0  0  0  0  0  0  0
   -4.4297    0.6208   -0.2432 C   0  0  0  0  0  0  0  0  0  0  0  0
   -4.8885    1.9068   -0.2783 C   0  0  0  0  0  0  0  0  0  0  0  0
   -4.0683    2.9407    0.1075 C   0  0  0  0  0  0  0  0  0  0  0  0
   -2.7893    2.6440    0.5241 C   0  0  0  0  0  0  0  0  0  0  0  0
   -1.7501    3.9710    1.0147 Cl  0  0  0  0  0  0  0  0  0  0  0  0
   -2.3620    1.3335    0.5459 C   0  0  0  0  0  0  0  0  0  0  0  0
   -2.8695   -1.8643    1.3386 C   0  0  0  0  0  0  0  0  0  0  0  0
   -3.2686   -1.1164    2.5241 N   0  0  0  0  0  0  0  0  0  0  0  0
   -2.6723   -3.1406    1.4037 N   0  0  0  0  0  0  0  0  0  0  0  0
  1  2  1  0
  2  3  2  0
  3  4  1  0
  4  5  1  1
  5  6  2  0
  6  7  1  0
  7  8  2  0
  8  9  1  0
  9 10  1  0
 10 11  1  0
 11 12  2  0
 12 13  1  0
 13 14  1  0
 13 15  2  0
 15 16  1  0
 16 17  1  0
 16 18  2  0
  9 19  2  0
  4 20  1  0
 20 21  1  0
 21 22  2  0
 22 23  1  0
 23 24  2  0
 24 25  1  0
 25 26  1  0
 25 27  2  0
 20 28  1  0
 28 29  1  0
 28 30  2  0
 30  2  1  0
 19  5  1  0
 27 21  1  0
 18 11  1  0
M  END
>  <zinc_id>  (983) 
ZINC000013559327

>  <ortholog_name>  (983) 
DRTS_PLAFK

>  <gene_name>  (983) 
DRTS_PLAFK

>  <affinity>  (983) 
9.22

>  <chembldocid>  (983) 
17662

>  <title>  (983) 
None

>  <reference.pubmed_id>  (983) 
14736247

>  <reference.doi>  (983) 
None

>  <reference.chembl_id>  (983) 
CHEMBL1138835

>  <reference.journal>  (983) 
J. Med. Chem.

>  <reference.year>  (983) 
2004

$$$$

     RDKit          3D

 30 33  0  0  0  0  0  0  0  0999 V2000
   -2.1157   -5.1973    0.1017 N   0  0  0  0  0  0  0  0  0  0  0  0
   -2.2764   -3.7503    0.1830 C   0  0  0  0  0  0  0  0  0  0  0  0
   -2.1087   -3.1618   -0.8726 N   0  0  0  0  0  0  0  0  0  0  0  0
   -2.1910   -1.6451   -1.1488 C   0  0  2  0  0  0  0  0  0  0  0  0
   -0.6168   -1.3229   -0.9817 C   0  0  0  0  0  0  0  0  0  0  0  0
    0.2462   -2.1664   -1.6113 C   0  0  0  0  0  0  0  0  0  0  0  0
    1.6091   -1.9519   -1.5083 C   0  0  0  0  0  0  0  0  0  0  0  0
    2.0375   -0.8622   -0.7508 C   0  0  0  0  0  0  0  0  0  0  0  0
    1.1272   -0.0362   -0.1319 C   0  0  0  0  0  0  0  0  0  0  0  0
    1.6258    1.0234    0.6018 O   0  0  0  0  0  0  0  0  0  0  0  0
    2.9853    1.2562    0.7179 C   0  0  0  0  0  0  0  0  0  0  0  0
    3.7721    0.7217    1.7175 C   0  0  0  0  0  0  0  0  0  0  0  0
    5.1225    0.9884    1.7835 C   0  0  0  0  0  0  0  0  0  0  0  0
    6.1480    0.3230    3.0427 Cl  0  0  0  0  0  0  0  0  0  0  0  0
    5.6995    1.8128    0.8219 C   0  0  0  0  0  0  0  0  0  0  0  0
    4.9230    2.3456   -0.1721 C   0  0  0  0  0  0  0  0  0  0  0  0
    5.6146    3.3831   -1.3934 Cl  0  0  0  0  0  0  0  0  0  0  0  0
    3.5859    2.0697   -0.2208 C   0  0  0  0  0  0  0  0  0  0  0  0
   -0.2208   -0.2854   -0.2601 C   0  0  0  0  0  0  0  0  0  0  0  0
   -2.7280   -1.1131    0.1951 N   0  0  0  0  0  0  0  0  0  0  0  0
   -3.1410    0.2732    0.1718 C   0  0  0  0  0  0  0  0  0  0  0  0
   -4.4297    0.6208   -0.2432 C   0  0  0  0  0  0  0  0  0  0  0  0
   -4.8885    1.9068   -0.2783 C   0  0  0  0  0  0  0  0  0  0  0  0
   -4.0683    2.9407    0.1075 C   0  0  0  0  0  0  0  0  0  0  0  0
   -2.7893    2.6440    0.5241 C   0  0  0  0  0  0  0  0  0  0  0  0
   -1.7501    3.9710    1.0147 Cl  0  0  0  0  0  0  0  0  0  0  0  0
   -2.3620    1.3335    0.5459 C   0  0  0  0  0  0  0  0  0  0  0  0
   -2.8695   -1.8643    1.3386 C   0  0  0  0  0  0  0  0  0  0  0  0
   -3.2686   -1.1164    2.5241 N   0  0  0  0  0  0  0  0  0  0  0  0
   -2.6723   -3.1406    1.4037 N   0  0  0  0  0  0  0  0  0  0  0  0
  1  2  1  0
  2  3  2  0
  3  4  1  0
  4  5  1  1
  5  6  2  0
  6  7  1  0
  7  8  2  0
  8  9  1  0
  9 10  1  0
 10 11  1  0
 11 12  2  0
 12 13  1  0
 13 14  1  0
 13 15  2  0
 15 16  1  0
 16 17  1  0
 16 18  2  0
  9 19  2  0
  4 20  1  0
 20 21  1  0
 21 22  2  0
 22 23  1  0
 23 24  2  0
 24 25  1  0
 25 26  1  0
 25 27  2  0
 20 28  1  0
 28 29  1  0
 28 30  2  0
 30  2  1  0
 19  5  1  0
 27 21  1  0
 18 11  1  0
M  END
>  <zinc_id>  (984) 
ZINC000013559327

>  <ortholog_name>  (984) 
DRTS_PLAFK

>  <gene_name>  (984) 
DRTS_PLAFK

>  <affinity>  (984) 
9.00

>  <chembldocid>  (984) 
17662

>  <title>  (984) 
None

>  <reference.pubmed_id>  (984) 
14736247

>  <reference.doi>  (984) 
None

>  <reference.chembl_id>  (984) 
CHEMBL1138835

>  <reference.journal>  (984) 
J. Med. Chem.

>  <reference.year>  (984) 
2004

$$$$

     RDKit          3D

 30 33  0  0  0  0  0  0  0  0999 V2000
   -2.1157   -5.1973    0.1017 N   0  0  0  0  0  0  0  0  0  0  0  0
   -2.2764   -3.7503    0.1830 C   0  0  0  0  0  0  0  0  0  0  0  0
   -2.1087   -3.1618   -0.8726 N   0  0  0  0  0  0  0  0  0  0  0  0
   -2.1910   -1.6451   -1.1488 C   0  0  2  0  0  0  0  0  0  0  0  0
   -0.6168   -1.3229   -0.9817 C   0  0  0  0  0  0  0  0  0  0  0  0
    0.2462   -2.1664   -1.6113 C   0  0  0  0  0  0  0  0  0  0  0  0
    1.6091   -1.9519   -1.5083 C   0  0  0  0  0  0  0  0  0  0  0  0
    2.0375   -0.8622   -0.7508 C   0  0  0  0  0  0  0  0  0  0  0  0
    1.1272   -0.0362   -0.1319 C   0  0  0  0  0  0  0  0  0  0  0  0
    1.6258    1.0234    0.6018 O   0  0  0  0  0  0  0  0  0  0  0  0
    2.9853    1.2562    0.7179 C   0  0  0  0  0  0  0  0  0  0  0  0
    3.7721    0.7217    1.7175 C   0  0  0  0  0  0  0  0  0  0  0  0
    5.1225    0.9884    1.7835 C   0  0  0  0  0  0  0  0  0  0  0  0
    6.1480    0.3230    3.0427 Cl  0  0  0  0  0  0  0  0  0  0  0  0
    5.6995    1.8128    0.8219 C   0  0  0  0  0  0  0  0  0  0  0  0
    4.9230    2.3456   -0.1721 C   0  0  0  0  0  0  0  0  0  0  0  0
    5.6146    3.3831   -1.3934 Cl  0  0  0  0  0  0  0  0  0  0  0  0
    3.5859    2.0697   -0.2208 C   0  0  0  0  0  0  0  0  0  0  0  0
   -0.2208   -0.2854   -0.2601 C   0  0  0  0  0  0  0  0  0  0  0  0
   -2.7280   -1.1131    0.1951 N   0  0  0  0  0  0  0  0  0  0  0  0
   -3.1410    0.2732    0.1718 C   0  0  0  0  0  0  0  0  0  0  0  0
   -4.4297    0.6208   -0.2432 C   0  0  0  0  0  0  0  0  0  0  0  0
   -4.8885    1.9068   -0.2783 C   0  0  0  0  0  0  0  0  0  0  0  0
   -4.0683    2.9407    0.1075 C   0  0  0  0  0  0  0  0  0  0  0  0
   -2.7893    2.6440    0.5241 C   0  0  0  0  0  0  0  0  0  0  0  0
   -1.7501    3.9710    1.0147 Cl  0  0  0  0  0  0  0  0  0  0  0  0
   -2.3620    1.3335    0.5459 C   0  0  0  0  0  0  0  0  0  0  0  0
   -2.8695   -1.8643    1.3386 C   0  0  0  0  0  0  0  0  0  0  0  0
   -3.2686   -1.1164    2.5241 N   0  0  0  0  0  0  0  0  0  0  0  0
   -2.6723   -3.1406    1.4037 N   0  0  0  0  0  0  0  0  0  0  0  0
  1  2  1  0
  2  3  2  0
  3  4  1  0
  4  5  1  1
  5  6  2  0
  6  7  1  0
  7  8  2  0
  8  9  1  0
  9 10  1  0
 10 11  1  0
 11 12  2  0
 12 13  1  0
 13 14  1  0
 13 15  2  0
 15 16  1  0
 16 17  1  0
 16 18  2  0
  9 19  2  0
  4 20  1  0
 20 21  1  0
 21 22  2  0
 22 23  1  0
 23 24  2  0
 24 25  1  0
 25 26  1  0
 25 27  2  0
 20 28  1  0
 28 29  1  0
 28 30  2  0
 30  2  1  0
 19  5  1  0
 27 21  1  0
 18 11  1  0
M  END
>  <zinc_id>  (985) 
ZINC000013559327

>  <ortholog_name>  (985) 
DRTS_PLAFK

>  <gene_name>  (985) 
DRTS_PLAFK

>  <affinity>  (985) 
8.74

>  <chembldocid>  (985) 
17662

>  <title>  (985) 
None

>  <reference.pubmed_id>  (985) 
14736247

>  <reference.doi>  (985) 
None

>  <reference.chembl_id>  (985) 
CHEMBL1138835

>  <reference.journal>  (985) 
J. Med. Chem.

>  <reference.year>  (985) 
2004

$$$$

     RDKit          3D

 30 33  0  0  0  0  0  0  0  0999 V2000
   -2.1157   -5.1973    0.1017 N   0  0  0  0  0  0  0  0  0  0  0  0
   -2.2764   -3.7503    0.1830 C   0  0  0  0  0  0  0  0  0  0  0  0
   -2.1087   -3.1618   -0.8726 N   0  0  0  0  0  0  0  0  0  0  0  0
   -2.1910   -1.6451   -1.1488 C   0  0  2  0  0  0  0  0  0  0  0  0
   -0.6168   -1.3229   -0.9817 C   0  0  0  0  0  0  0  0  0  0  0  0
    0.2462   -2.1664   -1.6113 C   0  0  0  0  0  0  0  0  0  0  0  0
    1.6091   -1.9519   -1.5083 C   0  0  0  0  0  0  0  0  0  0  0  0
    2.0375   -0.8622   -0.7508 C   0  0  0  0  0  0  0  0  0  0  0  0
    1.1272   -0.0362   -0.1319 C   0  0  0  0  0  0  0  0  0  0  0  0
    1.6258    1.0234    0.6018 O   0  0  0  0  0  0  0  0  0  0  0  0
    2.9853    1.2562    0.7179 C   0  0  0  0  0  0  0  0  0  0  0  0
    3.7721    0.7217    1.7175 C   0  0  0  0  0  0  0  0  0  0  0  0
    5.1225    0.9884    1.7835 C   0  0  0  0  0  0  0  0  0  0  0  0
    6.1480    0.3230    3.0427 Cl  0  0  0  0  0  0  0  0  0  0  0  0
    5.6995    1.8128    0.8219 C   0  0  0  0  0  0  0  0  0  0  0  0
    4.9230    2.3456   -0.1721 C   0  0  0  0  0  0  0  0  0  0  0  0
    5.6146    3.3831   -1.3934 Cl  0  0  0  0  0  0  0  0  0  0  0  0
    3.5859    2.0697   -0.2208 C   0  0  0  0  0  0  0  0  0  0  0  0
   -0.2208   -0.2854   -0.2601 C   0  0  0  0  0  0  0  0  0  0  0  0
   -2.7280   -1.1131    0.1951 N   0  0  0  0  0  0  0  0  0  0  0  0
   -3.1410    0.2732    0.1718 C   0  0  0  0  0  0  0  0  0  0  0  0
   -4.4297    0.6208   -0.2432 C   0  0  0  0  0  0  0  0  0  0  0  0
   -4.8885    1.9068   -0.2783 C   0  0  0  0  0  0  0  0  0  0  0  0
   -4.0683    2.9407    0.1075 C   0  0  0  0  0  0  0  0  0  0  0  0
   -2.7893    2.6440    0.5241 C   0  0  0  0  0  0  0  0  0  0  0  0
   -1.7501    3.9710    1.0147 Cl  0  0  0  0  0  0  0  0  0  0  0  0
   -2.3620    1.3335    0.5459 C   0  0  0  0  0  0  0  0  0  0  0  0
   -2.8695   -1.8643    1.3386 C   0  0  0  0  0  0  0  0  0  0  0  0
   -3.2686   -1.1164    2.5241 N   0  0  0  0  0  0  0  0  0  0  0  0
   -2.6723   -3.1406    1.4037 N   0  0  0  0  0  0  0  0  0  0  0  0
  1  2  1  0
  2  3  2  0
  3  4  1  0
  4  5  1  1
  5  6  2  0
  6  7  1  0
  7  8  2  0
  8  9  1  0
  9 10  1  0
 10 11  1  0
 11 12  2  0
 12 13  1  0
 13 14  1  0
 13 15  2  0
 15 16  1  0
 16 17  1  0
 16 18  2  0
  9 19  2  0
  4 20  1  0
 20 21  1  0
 21 22  2  0
 22 23  1  0
 23 24  2  0
 24 25  1  0
 25 26  1  0
 25 27  2  0
 20 28  1  0
 28 29  1  0
 28 30  2  0
 30  2  1  0
 19  5  1  0
 27 21  1  0
 18 11  1  0
M  END
>  <zinc_id>  (986) 
ZINC000013559327

>  <ortholog_name>  (986) 
DRTS_PLAFK

>  <gene_name>  (986) 
DRTS_PLAFK

>  <affinity>  (986) 
8.57

>  <chembldocid>  (986) 
17662

>  <title>  (986) 
None

>  <reference.pubmed_id>  (986) 
14736247

>  <reference.doi>  (986) 
None

>  <reference.chembl_id>  (986) 
CHEMBL1138835

>  <reference.journal>  (986) 
J. Med. Chem.

>  <reference.year>  (986) 
2004

$$$$

     RDKit          3D

 30 33  0  0  0  0  0  0  0  0999 V2000
   -2.1157   -5.1973    0.1017 N   0  0  0  0  0  0  0  0  0  0  0  0
   -2.2764   -3.7503    0.1830 C   0  0  0  0  0  0  0  0  0  0  0  0
   -2.1087   -3.1618   -0.8726 N   0  0  0  0  0  0  0  0  0  0  0  0
   -2.1910   -1.6451   -1.1488 C   0  0  2  0  0  0  0  0  0  0  0  0
   -0.6168   -1.3229   -0.9817 C   0  0  0  0  0  0  0  0  0  0  0  0
    0.2462   -2.1664   -1.6113 C   0  0  0  0  0  0  0  0  0  0  0  0
    1.6091   -1.9519   -1.5083 C   0  0  0  0  0  0  0  0  0  0  0  0
    2.0375   -0.8622   -0.7508 C   0  0  0  0  0  0  0  0  0  0  0  0
    1.1272   -0.0362   -0.1319 C   0  0  0  0  0  0  0  0  0  0  0  0
    1.6258    1.0234    0.6018 O   0  0  0  0  0  0  0  0  0  0  0  0
    2.9853    1.2562    0.7179 C   0  0  0  0  0  0  0  0  0  0  0  0
    3.7721    0.7217    1.7175 C   0  0  0  0  0  0  0  0  0  0  0  0
    5.1225    0.9884    1.7835 C   0  0  0  0  0  0  0  0  0  0  0  0
    6.1480    0.3230    3.0427 Cl  0  0  0  0  0  0  0  0  0  0  0  0
    5.6995    1.8128    0.8219 C   0  0  0  0  0  0  0  0  0  0  0  0
    4.9230    2.3456   -0.1721 C   0  0  0  0  0  0  0  0  0  0  0  0
    5.6146    3.3831   -1.3934 Cl  0  0  0  0  0  0  0  0  0  0  0  0
    3.5859    2.0697   -0.2208 C   0  0  0  0  0  0  0  0  0  0  0  0
   -0.2208   -0.2854   -0.2601 C   0  0  0  0  0  0  0  0  0  0  0  0
   -2.7280   -1.1131    0.1951 N   0  0  0  0  0  0  0  0  0  0  0  0
   -3.1410    0.2732    0.1718 C   0  0  0  0  0  0  0  0  0  0  0  0
   -4.4297    0.6208   -0.2432 C   0  0  0  0  0  0  0  0  0  0  0  0
   -4.8885    1.9068   -0.2783 C   0  0  0  0  0  0  0  0  0  0  0  0
   -4.0683    2.9407    0.1075 C   0  0  0  0  0  0  0  0  0  0  0  0
   -2.7893    2.6440    0.5241 C   0  0  0  0  0  0  0  0  0  0  0  0
   -1.7501    3.9710    1.0147 Cl  0  0  0  0  0  0  0  0  0  0  0  0
   -2.3620    1.3335    0.5459 C   0  0  0  0  0  0  0  0  0  0  0  0
   -2.8695   -1.8643    1.3386 C   0  0  0  0  0  0  0  0  0  0  0  0
   -3.2686   -1.1164    2.5241 N   0  0  0  0  0  0  0  0  0  0  0  0
   -2.6723   -3.1406    1.4037 N   0  0  0  0  0  0  0  0  0  0  0  0
  1  2  1  0
  2  3  2  0
  3  4  1  0
  4  5  1  1
  5  6  2  0
  6  7  1  0
  7  8  2  0
  8  9  1  0
  9 10  1  0
 10 11  1  0
 11 12  2  0
 12 13  1  0
 13 14  1  0
 13 15  2  0
 15 16  1  0
 16 17  1  0
 16 18  2  0
  9 19  2  0
  4 20  1  0
 20 21  1  0
 21 22  2  0
 22 23  1  0
 23 24  2  0
 24 25  1  0
 25 26  1  0
 25 27  2  0
 20 28  1  0
 28 29  1  0
 28 30  2  0
 30  2  1  0
 19  5  1  0
 27 21  1  0
 18 11  1  0
M  END
>  <zinc_id>  (987) 
ZINC000013559327

>  <ortholog_name>  (987) 
DRTS_PLAFK

>  <gene_name>  (987) 
DRTS_PLAFK

>  <affinity>  (987) 
5.51

>  <chembldocid>  (987) 
17662

>  <title>  (987) 
None

>  <reference.pubmed_id>  (987) 
14736247

>  <reference.doi>  (987) 
None

>  <reference.chembl_id>  (987) 
CHEMBL1138835

>  <reference.journal>  (987) 
J. Med. Chem.

>  <reference.year>  (987) 
2004

$$$$

     RDKit          3D

 30 33  0  0  0  0  0  0  0  0999 V2000
   -2.1157   -5.1973    0.1017 N   0  0  0  0  0  0  0  0  0  0  0  0
   -2.2764   -3.7503    0.1830 C   0  0  0  0  0  0  0  0  0  0  0  0
   -2.1087   -3.1618   -0.8726 N   0  0  0  0  0  0  0  0  0  0  0  0
   -2.1910   -1.6451   -1.1488 C   0  0  2  0  0  0  0  0  0  0  0  0
   -0.6168   -1.3229   -0.9817 C   0  0  0  0  0  0  0  0  0  0  0  0
    0.2462   -2.1664   -1.6113 C   0  0  0  0  0  0  0  0  0  0  0  0
    1.6091   -1.9519   -1.5083 C   0  0  0  0  0  0  0  0  0  0  0  0
    2.0375   -0.8622   -0.7508 C   0  0  0  0  0  0  0  0  0  0  0  0
    1.1272   -0.0362   -0.1319 C   0  0  0  0  0  0  0  0  0  0  0  0
    1.6258    1.0234    0.6018 O   0  0  0  0  0  0  0  0  0  0  0  0
    2.9853    1.2562    0.7179 C   0  0  0  0  0  0  0  0  0  0  0  0
    3.7721    0.7217    1.7175 C   0  0  0  0  0  0  0  0  0  0  0  0
    5.1225    0.9884    1.7835 C   0  0  0  0  0  0  0  0  0  0  0  0
    6.1480    0.3230    3.0427 Cl  0  0  0  0  0  0  0  0  0  0  0  0
    5.6995    1.8128    0.8219 C   0  0  0  0  0  0  0  0  0  0  0  0
    4.9230    2.3456   -0.1721 C   0  0  0  0  0  0  0  0  0  0  0  0
    5.6146    3.3831   -1.3934 Cl  0  0  0  0  0  0  0  0  0  0  0  0
    3.5859    2.0697   -0.2208 C   0  0  0  0  0  0  0  0  0  0  0  0
   -0.2208   -0.2854   -0.2601 C   0  0  0  0  0  0  0  0  0  0  0  0
   -2.7280   -1.1131    0.1951 N   0  0  0  0  0  0  0  0  0  0  0  0
   -3.1410    0.2732    0.1718 C   0  0  0  0  0  0  0  0  0  0  0  0
   -4.4297    0.6208   -0.2432 C   0  0  0  0  0  0  0  0  0  0  0  0
   -4.8885    1.9068   -0.2783 C   0  0  0  0  0  0  0  0  0  0  0  0
   -4.0683    2.9407    0.1075 C   0  0  0  0  0  0  0  0  0  0  0  0
   -2.7893    2.6440    0.5241 C   0  0  0  0  0  0  0  0  0  0  0  0
   -1.7501    3.9710    1.0147 Cl  0  0  0  0  0  0  0  0  0  0  0  0
   -2.3620    1.3335    0.5459 C   0  0  0  0  0  0  0  0  0  0  0  0
   -2.8695   -1.8643    1.3386 C   0  0  0  0  0  0  0  0  0  0  0  0
   -3.2686   -1.1164    2.5241 N   0  0  0  0  0  0  0  0  0  0  0  0
   -2.6723   -3.1406    1.4037 N   0  0  0  0  0  0  0  0  0  0  0  0
  1  2  1  0
  2  3  2  0
  3  4  1  0
  4  5  1  1
  5  6  2  0
  6  7  1  0
  7  8  2  0
  8  9  1  0
  9 10  1  0
 10 11  1  0
 11 12  2  0
 12 13  1  0
 13 14  1  0
 13 15  2  0
 15 16  1  0
 16 17  1  0
 16 18  2  0
  9 19  2  0
  4 20  1  0
 20 21  1  0
 21 22  2  0
 22 23  1  0
 23 24  2  0
 24 25  1  0
 25 26  1  0
 25 27  2  0
 20 28  1  0
 28 29  1  0
 28 30  2  0
 30  2  1  0
 19  5  1  0
 27 21  1  0
 18 11  1  0
M  END
>  <zinc_id>  (988) 
ZINC000013559327

>  <ortholog_name>  (988) 
DRTS_PLAFK

>  <gene_name>  (988) 
DRTS_PLAFK

>  <affinity>  (988) 
5.47

>  <chembldocid>  (988) 
17662

>  <title>  (988) 
None

>  <reference.pubmed_id>  (988) 
14736247

>  <reference.doi>  (988) 
None

>  <reference.chembl_id>  (988) 
CHEMBL1138835

>  <reference.journal>  (988) 
J. Med. Chem.

>  <reference.year>  (988) 
2004

$$$$

     RDKit          3D

 30 33  0  0  0  0  0  0  0  0999 V2000
   -2.1157   -5.1973    0.1017 N   0  0  0  0  0  0  0  0  0  0  0  0
   -2.2764   -3.7503    0.1830 C   0  0  0  0  0  0  0  0  0  0  0  0
   -2.1087   -3.1618   -0.8726 N   0  0  0  0  0  0  0  0  0  0  0  0
   -2.1910   -1.6451   -1.1488 C   0  0  2  0  0  0  0  0  0  0  0  0
   -0.6168   -1.3229   -0.9817 C   0  0  0  0  0  0  0  0  0  0  0  0
    0.2462   -2.1664   -1.6113 C   0  0  0  0  0  0  0  0  0  0  0  0
    1.6091   -1.9519   -1.5083 C   0  0  0  0  0  0  0  0  0  0  0  0
    2.0375   -0.8622   -0.7508 C   0  0  0  0  0  0  0  0  0  0  0  0
    1.1272   -0.0362   -0.1319 C   0  0  0  0  0  0  0  0  0  0  0  0
    1.6258    1.0234    0.6018 O   0  0  0  0  0  0  0  0  0  0  0  0
    2.9853    1.2562    0.7179 C   0  0  0  0  0  0  0  0  0  0  0  0
    3.7721    0.7217    1.7175 C   0  0  0  0  0  0  0  0  0  0  0  0
    5.1225    0.9884    1.7835 C   0  0  0  0  0  0  0  0  0  0  0  0
    6.1480    0.3230    3.0427 Cl  0  0  0  0  0  0  0  0  0  0  0  0
    5.6995    1.8128    0.8219 C   0  0  0  0  0  0  0  0  0  0  0  0
    4.9230    2.3456   -0.1721 C   0  0  0  0  0  0  0  0  0  0  0  0
    5.6146    3.3831   -1.3934 Cl  0  0  0  0  0  0  0  0  0  0  0  0
    3.5859    2.0697   -0.2208 C   0  0  0  0  0  0  0  0  0  0  0  0
   -0.2208   -0.2854   -0.2601 C   0  0  0  0  0  0  0  0  0  0  0  0
   -2.7280   -1.1131    0.1951 N   0  0  0  0  0  0  0  0  0  0  0  0
   -3.1410    0.2732    0.1718 C   0  0  0  0  0  0  0  0  0  0  0  0
   -4.4297    0.6208   -0.2432 C   0  0  0  0  0  0  0  0  0  0  0  0
   -4.8885    1.9068   -0.2783 C   0  0  0  0  0  0  0  0  0  0  0  0
   -4.0683    2.9407    0.1075 C   0  0  0  0  0  0  0  0  0  0  0  0
   -2.7893    2.6440    0.5241 C   0  0  0  0  0  0  0  0  0  0  0  0
   -1.7501    3.9710    1.0147 Cl  0  0  0  0  0  0  0  0  0  0  0  0
   -2.3620    1.3335    0.5459 C   0  0  0  0  0  0  0  0  0  0  0  0
   -2.8695   -1.8643    1.3386 C   0  0  0  0  0  0  0  0  0  0  0  0
   -3.2686   -1.1164    2.5241 N   0  0  0  0  0  0  0  0  0  0  0  0
   -2.6723   -3.1406    1.4037 N   0  0  0  0  0  0  0  0  0  0  0  0
  1  2  1  0
  2  3  2  0
  3  4  1  0
  4  5  1  1
  5  6  2  0
  6  7  1  0
  7  8  2  0
  8  9  1  0
  9 10  1  0
 10 11  1  0
 11 12  2  0
 12 13  1  0
 13 14  1  0
 13 15  2  0
 15 16  1  0
 16 17  1  0
 16 18  2  0
  9 19  2  0
  4 20  1  0
 20 21  1  0
 21 22  2  0
 22 23  1  0
 23 24  2  0
 24 25  1  0
 25 26  1  0
 25 27  2  0
 20 28  1  0
 28 29  1  0
 28 30  2  0
 30  2  1  0
 19  5  1  0
 27 21  1  0
 18 11  1  0
M  END
>  <zinc_id>  (989) 
ZINC000013559327

>  <ortholog_name>  (989) 
DRTS_PLAFK

>  <gene_name>  (989) 
DRTS_PLAFK

>  <affinity>  (989) 
5.41

>  <chembldocid>  (989) 
17662

>  <title>  (989) 
None

>  <reference.pubmed_id>  (989) 
14736247

>  <reference.doi>  (989) 
None

>  <reference.chembl_id>  (989) 
CHEMBL1138835

>  <reference.journal>  (989) 
J. Med. Chem.

>  <reference.year>  (989) 
2004

$$$$

     RDKit          3D

 30 33  0  0  0  0  0  0  0  0999 V2000
   -2.1157   -5.1973    0.1017 N   0  0  0  0  0  0  0  0  0  0  0  0
   -2.2764   -3.7503    0.1830 C   0  0  0  0  0  0  0  0  0  0  0  0
   -2.1087   -3.1618   -0.8726 N   0  0  0  0  0  0  0  0  0  0  0  0
   -2.1910   -1.6451   -1.1488 C   0  0  2  0  0  0  0  0  0  0  0  0
   -0.6168   -1.3229   -0.9817 C   0  0  0  0  0  0  0  0  0  0  0  0
    0.2462   -2.1664   -1.6113 C   0  0  0  0  0  0  0  0  0  0  0  0
    1.6091   -1.9519   -1.5083 C   0  0  0  0  0  0  0  0  0  0  0  0
    2.0375   -0.8622   -0.7508 C   0  0  0  0  0  0  0  0  0  0  0  0
    1.1272   -0.0362   -0.1319 C   0  0  0  0  0  0  0  0  0  0  0  0
    1.6258    1.0234    0.6018 O   0  0  0  0  0  0  0  0  0  0  0  0
    2.9853    1.2562    0.7179 C   0  0  0  0  0  0  0  0  0  0  0  0
    3.7721    0.7217    1.7175 C   0  0  0  0  0  0  0  0  0  0  0  0
    5.1225    0.9884    1.7835 C   0  0  0  0  0  0  0  0  0  0  0  0
    6.1480    0.3230    3.0427 Cl  0  0  0  0  0  0  0  0  0  0  0  0
    5.6995    1.8128    0.8219 C   0  0  0  0  0  0  0  0  0  0  0  0
    4.9230    2.3456   -0.1721 C   0  0  0  0  0  0  0  0  0  0  0  0
    5.6146    3.3831   -1.3934 Cl  0  0  0  0  0  0  0  0  0  0  0  0
    3.5859    2.0697   -0.2208 C   0  0  0  0  0  0  0  0  0  0  0  0
   -0.2208   -0.2854   -0.2601 C   0  0  0  0  0  0  0  0  0  0  0  0
   -2.7280   -1.1131    0.1951 N   0  0  0  0  0  0  0  0  0  0  0  0
   -3.1410    0.2732    0.1718 C   0  0  0  0  0  0  0  0  0  0  0  0
   -4.4297    0.6208   -0.2432 C   0  0  0  0  0  0  0  0  0  0  0  0
   -4.8885    1.9068   -0.2783 C   0  0  0  0  0  0  0  0  0  0  0  0
   -4.0683    2.9407    0.1075 C   0  0  0  0  0  0  0  0  0  0  0  0
   -2.7893    2.6440    0.5241 C   0  0  0  0  0  0  0  0  0  0  0  0
   -1.7501    3.9710    1.0147 Cl  0  0  0  0  0  0  0  0  0  0  0  0
   -2.3620    1.3335    0.5459 C   0  0  0  0  0  0  0  0  0  0  0  0
   -2.8695   -1.8643    1.3386 C   0  0  0  0  0  0  0  0  0  0  0  0
   -3.2686   -1.1164    2.5241 N   0  0  0  0  0  0  0  0  0  0  0  0
   -2.6723   -3.1406    1.4037 N   0  0  0  0  0  0  0  0  0  0  0  0
  1  2  1  0
  2  3  2  0
  3  4  1  0
  4  5  1  1
  5  6  2  0
  6  7  1  0
  7  8  2  0
  8  9  1  0
  9 10  1  0
 10 11  1  0
 11 12  2  0
 12 13  1  0
 13 14  1  0
 13 15  2  0
 15 16  1  0
 16 17  1  0
 16 18  2  0
  9 19  2  0
  4 20  1  0
 20 21  1  0
 21 22  2  0
 22 23  1  0
 23 24  2  0
 24 25  1  0
 25 26  1  0
 25 27  2  0
 20 28  1  0
 28 29  1  0
 28 30  2  0
 30  2  1  0
 19  5  1  0
 27 21  1  0
 18 11  1  0
M  END
>  <zinc_id>  (990) 
ZINC000013559327

>  <ortholog_name>  (990) 
DRTS_PLAFK

>  <gene_name>  (990) 
DRTS_PLAFK

>  <affinity>  (990) 
8.33

>  <chembldocid>  (990) 
17662

>  <title>  (990) 
None

>  <reference.pubmed_id>  (990) 
14736247

>  <reference.doi>  (990) 
None

>  <reference.chembl_id>  (990) 
CHEMBL1138835

>  <reference.journal>  (990) 
J. Med. Chem.

>  <reference.year>  (990) 
2004

$$$$

     RDKit          3D

 30 33  0  0  0  0  0  0  0  0999 V2000
   -2.1157   -5.1973    0.1017 N   0  0  0  0  0  0  0  0  0  0  0  0
   -2.2764   -3.7503    0.1830 C   0  0  0  0  0  0  0  0  0  0  0  0
   -2.1087   -3.1618   -0.8726 N   0  0  0  0  0  0  0  0  0  0  0  0
   -2.1910   -1.6451   -1.1488 C   0  0  2  0  0  0  0  0  0  0  0  0
   -0.6168   -1.3229   -0.9817 C   0  0  0  0  0  0  0  0  0  0  0  0
    0.2462   -2.1664   -1.6113 C   0  0  0  0  0  0  0  0  0  0  0  0
    1.6091   -1.9519   -1.5083 C   0  0  0  0  0  0  0  0  0  0  0  0
    2.0375   -0.8622   -0.7508 C   0  0  0  0  0  0  0  0  0  0  0  0
    1.1272   -0.0362   -0.1319 C   0  0  0  0  0  0  0  0  0  0  0  0
    1.6258    1.0234    0.6018 O   0  0  0  0  0  0  0  0  0  0  0  0
    2.9853    1.2562    0.7179 C   0  0  0  0  0  0  0  0  0  0  0  0
    3.7721    0.7217    1.7175 C   0  0  0  0  0  0  0  0  0  0  0  0
    5.1225    0.9884    1.7835 C   0  0  0  0  0  0  0  0  0  0  0  0
    6.1480    0.3230    3.0427 Cl  0  0  0  0  0  0  0  0  0  0  0  0
    5.6995    1.8128    0.8219 C   0  0  0  0  0  0  0  0  0  0  0  0
    4.9230    2.3456   -0.1721 C   0  0  0  0  0  0  0  0  0  0  0  0
    5.6146    3.3831   -1.3934 Cl  0  0  0  0  0  0  0  0  0  0  0  0
    3.5859    2.0697   -0.2208 C   0  0  0  0  0  0  0  0  0  0  0  0
   -0.2208   -0.2854   -0.2601 C   0  0  0  0  0  0  0  0  0  0  0  0
   -2.7280   -1.1131    0.1951 N   0  0  0  0  0  0  0  0  0  0  0  0
   -3.1410    0.2732    0.1718 C   0  0  0  0  0  0  0  0  0  0  0  0
   -4.4297    0.6208   -0.2432 C   0  0  0  0  0  0  0  0  0  0  0  0
   -4.8885    1.9068   -0.2783 C   0  0  0  0  0  0  0  0  0  0  0  0
   -4.0683    2.9407    0.1075 C   0  0  0  0  0  0  0  0  0  0  0  0
   -2.7893    2.6440    0.5241 C   0  0  0  0  0  0  0  0  0  0  0  0
   -1.7501    3.9710    1.0147 Cl  0  0  0  0  0  0  0  0  0  0  0  0
   -2.3620    1.3335    0.5459 C   0  0  0  0  0  0  0  0  0  0  0  0
   -2.8695   -1.8643    1.3386 C   0  0  0  0  0  0  0  0  0  0  0  0
   -3.2686   -1.1164    2.5241 N   0  0  0  0  0  0  0  0  0  0  0  0
   -2.6723   -3.1406    1.4037 N   0  0  0  0  0  0  0  0  0  0  0  0
  1  2  1  0
  2  3  2  0
  3  4  1  0
  4  5  1  1
  5  6  2  0
  6  7  1  0
  7  8  2  0
  8  9  1  0
  9 10  1  0
 10 11  1  0
 11 12  2  0
 12 13  1  0
 13 14  1  0
 13 15  2  0
 15 16  1  0
 16 17  1  0
 16 18  2  0
  9 19  2  0
  4 20  1  0
 20 21  1  0
 21 22  2  0
 22 23  1  0
 23 24  2  0
 24 25  1  0
 25 26  1  0
 25 27  2  0
 20 28  1  0
 28 29  1  0
 28 30  2  0
 30  2  1  0
 19  5  1  0
 27 21  1  0
 18 11  1  0
M  END
>  <zinc_id>  (991) 
ZINC000013559327

>  <ortholog_name>  (991) 
DRTS_PLAFK

>  <gene_name>  (991) 
DRTS_PLAFK

>  <affinity>  (991) 
7.30

>  <chembldocid>  (991) 
17662

>  <title>  (991) 
None

>  <reference.pubmed_id>  (991) 
14736247

>  <reference.doi>  (991) 
None

>  <reference.chembl_id>  (991) 
CHEMBL1138835

>  <reference.journal>  (991) 
J. Med. Chem.

>  <reference.year>  (991) 
2004

$$$$

     RDKit          3D

 30 33  0  0  0  0  0  0  0  0999 V2000
   -2.1157   -5.1973    0.1017 N   0  0  0  0  0  0  0  0  0  0  0  0
   -2.2764   -3.7503    0.1830 C   0  0  0  0  0  0  0  0  0  0  0  0
   -2.1087   -3.1618   -0.8726 N   0  0  0  0  0  0  0  0  0  0  0  0
   -2.1910   -1.6451   -1.1488 C   0  0  2  0  0  0  0  0  0  0  0  0
   -0.6168   -1.3229   -0.9817 C   0  0  0  0  0  0  0  0  0  0  0  0
    0.2462   -2.1664   -1.6113 C   0  0  0  0  0  0  0  0  0  0  0  0
    1.6091   -1.9519   -1.5083 C   0  0  0  0  0  0  0  0  0  0  0  0
    2.0375   -0.8622   -0.7508 C   0  0  0  0  0  0  0  0  0  0  0  0
    1.1272   -0.0362   -0.1319 C   0  0  0  0  0  0  0  0  0  0  0  0
    1.6258    1.0234    0.6018 O   0  0  0  0  0  0  0  0  0  0  0  0
    2.9853    1.2562    0.7179 C   0  0  0  0  0  0  0  0  0  0  0  0
    3.7721    0.7217    1.7175 C   0  0  0  0  0  0  0  0  0  0  0  0
    5.1225    0.9884    1.7835 C   0  0  0  0  0  0  0  0  0  0  0  0
    6.1480    0.3230    3.0427 Cl  0  0  0  0  0  0  0  0  0  0  0  0
    5.6995    1.8128    0.8219 C   0  0  0  0  0  0  0  0  0  0  0  0
    4.9230    2.3456   -0.1721 C   0  0  0  0  0  0  0  0  0  0  0  0
    5.6146    3.3831   -1.3934 Cl  0  0  0  0  0  0  0  0  0  0  0  0
    3.5859    2.0697   -0.2208 C   0  0  0  0  0  0  0  0  0  0  0  0
   -0.2208   -0.2854   -0.2601 C   0  0  0  0  0  0  0  0  0  0  0  0
   -2.7280   -1.1131    0.1951 N   0  0  0  0  0  0  0  0  0  0  0  0
   -3.1410    0.2732    0.1718 C   0  0  0  0  0  0  0  0  0  0  0  0
   -4.4297    0.6208   -0.2432 C   0  0  0  0  0  0  0  0  0  0  0  0
   -4.8885    1.9068   -0.2783 C   0  0  0  0  0  0  0  0  0  0  0  0
   -4.0683    2.9407    0.1075 C   0  0  0  0  0  0  0  0  0  0  0  0
   -2.7893    2.6440    0.5241 C   0  0  0  0  0  0  0  0  0  0  0  0
   -1.7501    3.9710    1.0147 Cl  0  0  0  0  0  0  0  0  0  0  0  0
   -2.3620    1.3335    0.5459 C   0  0  0  0  0  0  0  0  0  0  0  0
   -2.8695   -1.8643    1.3386 C   0  0  0  0  0  0  0  0  0  0  0  0
   -3.2686   -1.1164    2.5241 N   0  0  0  0  0  0  0  0  0  0  0  0
   -2.6723   -3.1406    1.4037 N   0  0  0  0  0  0  0  0  0  0  0  0
  1  2  1  0
  2  3  2  0
  3  4  1  0
  4  5  1  1
  5  6  2  0
  6  7  1  0
  7  8  2  0
  8  9  1  0
  9 10  1  0
 10 11  1  0
 11 12  2  0
 12 13  1  0
 13 14  1  0
 13 15  2  0
 15 16  1  0
 16 17  1  0
 16 18  2  0
  9 19  2  0
  4 20  1  0
 20 21  1  0
 21 22  2  0
 22 23  1  0
 23 24  2  0
 24 25  1  0
 25 26  1  0
 25 27  2  0
 20 28  1  0
 28 29  1  0
 28 30  2  0
 30  2  1  0
 19  5  1  0
 27 21  1  0
 18 11  1  0
M  END
>  <zinc_id>  (992) 
ZINC000013559327

>  <ortholog_name>  (992) 
DRTS_PLAFK

>  <gene_name>  (992) 
DRTS_PLAFK

>  <affinity>  (992) 
5.26

>  <chembldocid>  (992) 
17662

>  <title>  (992) 
None

>  <reference.pubmed_id>  (992) 
14736247

>  <reference.doi>  (992) 
None

>  <reference.chembl_id>  (992) 
CHEMBL1138835

>  <reference.journal>  (992) 
J. Med. Chem.

>  <reference.year>  (992) 
2004

$$$$

     RDKit          3D

 32 35  0  0  0  0  0  0  0  0999 V2000
    1.4008    3.5306   -0.8394 N   0  0  0  0  0  0  0  0  0  0  0  0
    1.6941    2.1333   -0.5751 C   0  0  0  0  0  0  0  0  0  0  0  0
    2.1763    1.9604    0.5339 N   0  0  0  0  0  0  0  0  0  0  0  0
    2.5255    0.3934    0.9623 C   0  0  1  0  0  0  0  0  0  0  0  0
    1.0405   -0.0883    0.8346 C   0  0  0  0  0  0  0  0  0  0  0  0
    0.7402   -1.0239    1.8303 C   0  0  0  0  0  0  0  0  0  0  0  0
   -0.4085   -1.6315    2.0751 C   0  0  0  0  0  0  0  0  0  0  0  0
   -1.4551   -1.2613    1.1712 C   0  0  0  0  0  0  0  0  0  0  0  0
   -1.2098   -0.3555    0.1584 C   0  0  0  0  0  0  0  0  0  0  0  0
   -2.3094   -0.0427   -0.7463 O   0  0  0  0  0  0  0  0  0  0  0  0
   -3.5727   -0.2915   -0.1463 C   0  0  0  0  0  0  0  0  0  0  0  0
   -3.6621   -1.5065    0.5421 C   0  0  0  0  0  0  0  0  0  0  0  0
   -4.8336   -1.9234    1.2166 C   0  0  0  0  0  0  0  0  0  0  0  0
   -5.9132   -1.0098    1.1404 C   0  0  0  0  0  0  0  0  0  0  0  0
   -5.8128    0.1276    0.4714 C   0  0  0  0  0  0  0  0  0  0  0  0
   -6.9427    1.0585    0.5409 C   0  0  0  0  0  0  0  0  0  0  0  0
   -7.8093    0.7788    1.5677 F   0  0  0  0  0  0  0  0  0  0  0  0
   -7.6187    1.0908   -0.6577 F   0  0  0  0  0  0  0  0  0  0  0  0
   -6.4124    2.3381    0.7354 F   0  0  0  0  0  0  0  0  0  0  0  0
   -4.6766    0.4954   -0.1675 C   0  0  0  0  0  0  0  0  0  0  0  0
    0.0191    0.1968    0.0379 C   0  0  0  0  0  0  0  0  0  0  0  0
    3.1177   -0.0208   -0.3713 N   0  0  0  0  0  0  0  0  0  0  0  0
    4.5018   -0.4507   -0.3275 C   0  0  0  0  0  0  0  0  0  0  0  0
    5.0026   -1.6301    0.2522 C   0  0  0  0  0  0  0  0  0  0  0  0
    6.3658   -2.0104    0.1874 C   0  0  0  0  0  0  0  0  0  0  0  0
    7.1721   -1.1269   -0.4983 C   0  0  0  0  0  0  0  0  0  0  0  0
    6.8235   -0.0635   -1.0551 C   0  0  0  0  0  0  0  0  0  0  0  0
    7.7741    1.1440   -2.0058 Cl  0  0  0  0  0  0  0  0  0  0  0  0
    5.4170    0.3309   -0.9861 C   0  0  0  0  0  0  0  0  0  0  0  0
    2.4628    0.2277   -1.5803 C   0  0  0  0  0  0  0  0  0  0  0  0
    2.6285   -0.6477   -2.6296 N   0  0  0  0  0  0  0  0  0  0  0  0
    1.7747    1.2944   -1.6716 N   0  0  0  0  0  0  0  0  0  0  0  0
  1  2  1  0
  2  3  2  0
  3  4  1  0
  4  5  1  6
  5  6  2  0
  6  7  1  0
  7  8  2  0
  8  9  1  0
  9 10  1  0
 10 11  1  0
 11 12  2  0
 12 13  1  0
 13 14  2  0
 14 15  1  0
 15 16  1  0
 16 17  1  0
 16 18  1  0
 16 19  1  0
 15 20  2  0
  9 21  2  0
  4 22  1  0
 22 23  1  0
 23 24  2  0
 24 25  1  0
 25 26  2  0
 26 27  1  0
 27 28  1  0
 27 29  2  0
 22 30  1  0
 30 31  1  0
 30 32  2  0
 32  2  1  0
 21  5  1  0
 29 23  1  0
 20 11  1  0
M  END
>  <zinc_id>  (993) 
ZINC000013559328

>  <ortholog_name>  (993) 
DRTS_PLAFK

>  <gene_name>  (993) 
DRTS_PLAFK

>  <affinity>  (993) 
9.22

>  <chembldocid>  (993) 
17662

>  <title>  (993) 
None

>  <reference.pubmed_id>  (993) 
14736247

>  <reference.doi>  (993) 
None

>  <reference.chembl_id>  (993) 
CHEMBL1138835

>  <reference.journal>  (993) 
J. Med. Chem.

>  <reference.year>  (993) 
2004

$$$$

     RDKit          3D

 32 35  0  0  0  0  0  0  0  0999 V2000
    1.4008    3.5306   -0.8394 N   0  0  0  0  0  0  0  0  0  0  0  0
    1.6941    2.1333   -0.5751 C   0  0  0  0  0  0  0  0  0  0  0  0
    2.1763    1.9604    0.5339 N   0  0  0  0  0  0  0  0  0  0  0  0
    2.5255    0.3934    0.9623 C   0  0  1  0  0  0  0  0  0  0  0  0
    1.0405   -0.0883    0.8346 C   0  0  0  0  0  0  0  0  0  0  0  0
    0.7402   -1.0239    1.8303 C   0  0  0  0  0  0  0  0  0  0  0  0
   -0.4085   -1.6315    2.0751 C   0  0  0  0  0  0  0  0  0  0  0  0
   -1.4551   -1.2613    1.1712 C   0  0  0  0  0  0  0  0  0  0  0  0
   -1.2098   -0.3555    0.1584 C   0  0  0  0  0  0  0  0  0  0  0  0
   -2.3094   -0.0427   -0.7463 O   0  0  0  0  0  0  0  0  0  0  0  0
   -3.5727   -0.2915   -0.1463 C   0  0  0  0  0  0  0  0  0  0  0  0
   -3.6621   -1.5065    0.5421 C   0  0  0  0  0  0  0  0  0  0  0  0
   -4.8336   -1.9234    1.2166 C   0  0  0  0  0  0  0  0  0  0  0  0
   -5.9132   -1.0098    1.1404 C   0  0  0  0  0  0  0  0  0  0  0  0
   -5.8128    0.1276    0.4714 C   0  0  0  0  0  0  0  0  0  0  0  0
   -6.9427    1.0585    0.5409 C   0  0  0  0  0  0  0  0  0  0  0  0
   -7.8093    0.7788    1.5677 F   0  0  0  0  0  0  0  0  0  0  0  0
   -7.6187    1.0908   -0.6577 F   0  0  0  0  0  0  0  0  0  0  0  0
   -6.4124    2.3381    0.7354 F   0  0  0  0  0  0  0  0  0  0  0  0
   -4.6766    0.4954   -0.1675 C   0  0  0  0  0  0  0  0  0  0  0  0
    0.0191    0.1968    0.0379 C   0  0  0  0  0  0  0  0  0  0  0  0
    3.1177   -0.0208   -0.3713 N   0  0  0  0  0  0  0  0  0  0  0  0
    4.5018   -0.4507   -0.3275 C   0  0  0  0  0  0  0  0  0  0  0  0
    5.0026   -1.6301    0.2522 C   0  0  0  0  0  0  0  0  0  0  0  0
    6.3658   -2.0104    0.1874 C   0  0  0  0  0  0  0  0  0  0  0  0
    7.1721   -1.1269   -0.4983 C   0  0  0  0  0  0  0  0  0  0  0  0
    6.8235   -0.0635   -1.0551 C   0  0  0  0  0  0  0  0  0  0  0  0
    7.7741    1.1440   -2.0058 Cl  0  0  0  0  0  0  0  0  0  0  0  0
    5.4170    0.3309   -0.9861 C   0  0  0  0  0  0  0  0  0  0  0  0
    2.4628    0.2277   -1.5803 C   0  0  0  0  0  0  0  0  0  0  0  0
    2.6285   -0.6477   -2.6296 N   0  0  0  0  0  0  0  0  0  0  0  0
    1.7747    1.2944   -1.6716 N   0  0  0  0  0  0  0  0  0  0  0  0
  1  2  1  0
  2  3  2  0
  3  4  1  0
  4  5  1  6
  5  6  2  0
  6  7  1  0
  7  8  2  0
  8  9  1  0
  9 10  1  0
 10 11  1  0
 11 12  2  0
 12 13  1  0
 13 14  2  0
 14 15  1  0
 15 16  1  0
 16 17  1  0
 16 18  1  0
 16 19  1  0
 15 20  2  0
  9 21  2  0
  4 22  1  0
 22 23  1  0
 23 24  2  0
 24 25  1  0
 25 26  2  0
 26 27  1  0
 27 28  1  0
 27 29  2  0
 22 30  1  0
 30 31  1  0
 30 32  2  0
 32  2  1  0
 21  5  1  0
 29 23  1  0
 20 11  1  0
M  END
>  <zinc_id>  (994) 
ZINC000013559328

>  <ortholog_name>  (994) 
DRTS_PLAFK

>  <gene_name>  (994) 
DRTS_PLAFK

>  <affinity>  (994) 
6.74

>  <chembldocid>  (994) 
17662

>  <title>  (994) 
None

>  <reference.pubmed_id>  (994) 
14736247

>  <reference.doi>  (994) 
None

>  <reference.chembl_id>  (994) 
CHEMBL1138835

>  <reference.journal>  (994) 
J. Med. Chem.

>  <reference.year>  (994) 
2004

$$$$

     RDKit          3D

 32 35  0  0  0  0  0  0  0  0999 V2000
    1.4008    3.5306   -0.8394 N   0  0  0  0  0  0  0  0  0  0  0  0
    1.6941    2.1333   -0.5751 C   0  0  0  0  0  0  0  0  0  0  0  0
    2.1763    1.9604    0.5339 N   0  0  0  0  0  0  0  0  0  0  0  0
    2.5255    0.3934    0.9623 C   0  0  1  0  0  0  0  0  0  0  0  0
    1.0405   -0.0883    0.8346 C   0  0  0  0  0  0  0  0  0  0  0  0
    0.7402   -1.0239    1.8303 C   0  0  0  0  0  0  0  0  0  0  0  0
   -0.4085   -1.6315    2.0751 C   0  0  0  0  0  0  0  0  0  0  0  0
   -1.4551   -1.2613    1.1712 C   0  0  0  0  0  0  0  0  0  0  0  0
   -1.2098   -0.3555    0.1584 C   0  0  0  0  0  0  0  0  0  0  0  0
   -2.3094   -0.0427   -0.7463 O   0  0  0  0  0  0  0  0  0  0  0  0
   -3.5727   -0.2915   -0.1463 C   0  0  0  0  0  0  0  0  0  0  0  0
   -3.6621   -1.5065    0.5421 C   0  0  0  0  0  0  0  0  0  0  0  0
   -4.8336   -1.9234    1.2166 C   0  0  0  0  0  0  0  0  0  0  0  0
   -5.9132   -1.0098    1.1404 C   0  0  0  0  0  0  0  0  0  0  0  0
   -5.8128    0.1276    0.4714 C   0  0  0  0  0  0  0  0  0  0  0  0
   -6.9427    1.0585    0.5409 C   0  0  0  0  0  0  0  0  0  0  0  0
   -7.8093    0.7788    1.5677 F   0  0  0  0  0  0  0  0  0  0  0  0
   -7.6187    1.0908   -0.6577 F   0  0  0  0  0  0  0  0  0  0  0  0
   -6.4124    2.3381    0.7354 F   0  0  0  0  0  0  0  0  0  0  0  0
   -4.6766    0.4954   -0.1675 C   0  0  0  0  0  0  0  0  0  0  0  0
    0.0191    0.1968    0.0379 C   0  0  0  0  0  0  0  0  0  0  0  0
    3.1177   -0.0208   -0.3713 N   0  0  0  0  0  0  0  0  0  0  0  0
    4.5018   -0.4507   -0.3275 C   0  0  0  0  0  0  0  0  0  0  0  0
    5.0026   -1.6301    0.2522 C   0  0  0  0  0  0  0  0  0  0  0  0
    6.3658   -2.0104    0.1874 C   0  0  0  0  0  0  0  0  0  0  0  0
    7.1721   -1.1269   -0.4983 C   0  0  0  0  0  0  0  0  0  0  0  0
    6.8235   -0.0635   -1.0551 C   0  0  0  0  0  0  0  0  0  0  0  0
    7.7741    1.1440   -2.0058 Cl  0  0  0  0  0  0  0  0  0  0  0  0
    5.4170    0.3309   -0.9861 C   0  0  0  0  0  0  0  0  0  0  0  0
    2.4628    0.2277   -1.5803 C   0  0  0  0  0  0  0  0  0  0  0  0
    2.6285   -0.6477   -2.6296 N   0  0  0  0  0  0  0  0  0  0  0  0
    1.7747    1.2944   -1.6716 N   0  0  0  0  0  0  0  0  0  0  0  0
  1  2  1  0
  2  3  2  0
  3  4  1  0
  4  5  1  6
  5  6  2  0
  6  7  1  0
  7  8  2  0
  8  9  1  0
  9 10  1  0
 10 11  1  0
 11 12  2  0
 12 13  1  0
 13 14  2  0
 14 15  1  0
 15 16  1  0
 16 17  1  0
 16 18  1  0
 16 19  1  0
 15 20  2  0
  9 21  2  0
  4 22  1  0
 22 23  1  0
 23 24  2  0
 24 25  1  0
 25 26  2  0
 26 27  1  0
 27 28  1  0
 27 29  2  0
 22 30  1  0
 30 31  1  0
 30 32  2  0
 32  2  1  0
 21  5  1  0
 29 23  1  0
 20 11  1  0
M  END
>  <zinc_id>  (995) 
ZINC000013559328

>  <ortholog_name>  (995) 
DRTS_PLAFK

>  <gene_name>  (995) 
DRTS_PLAFK

>  <affinity>  (995) 
8.70

>  <chembldocid>  (995) 
17662

>  <title>  (995) 
None

>  <reference.pubmed_id>  (995) 
14736247

>  <reference.doi>  (995) 
None

>  <reference.chembl_id>  (995) 
CHEMBL1138835

>  <reference.journal>  (995) 
J. Med. Chem.

>  <reference.year>  (995) 
2004

$$$$

     RDKit          3D

 32 35  0  0  0  0  0  0  0  0999 V2000
    1.4008    3.5306   -0.8394 N   0  0  0  0  0  0  0  0  0  0  0  0
    1.6941    2.1333   -0.5751 C   0  0  0  0  0  0  0  0  0  0  0  0
    2.1763    1.9604    0.5339 N   0  0  0  0  0  0  0  0  0  0  0  0
    2.5255    0.3934    0.9623 C   0  0  1  0  0  0  0  0  0  0  0  0
    1.0405   -0.0883    0.8346 C   0  0  0  0  0  0  0  0  0  0  0  0
    0.7402   -1.0239    1.8303 C   0  0  0  0  0  0  0  0  0  0  0  0
   -0.4085   -1.6315    2.0751 C   0  0  0  0  0  0  0  0  0  0  0  0
   -1.4551   -1.2613    1.1712 C   0  0  0  0  0  0  0  0  0  0  0  0
   -1.2098   -0.3555    0.1584 C   0  0  0  0  0  0  0  0  0  0  0  0
   -2.3094   -0.0427   -0.7463 O   0  0  0  0  0  0  0  0  0  0  0  0
   -3.5727   -0.2915   -0.1463 C   0  0  0  0  0  0  0  0  0  0  0  0
   -3.6621   -1.5065    0.5421 C   0  0  0  0  0  0  0  0  0  0  0  0
   -4.8336   -1.9234    1.2166 C   0  0  0  0  0  0  0  0  0  0  0  0
   -5.9132   -1.0098    1.1404 C   0  0  0  0  0  0  0  0  0  0  0  0
   -5.8128    0.1276    0.4714 C   0  0  0  0  0  0  0  0  0  0  0  0
   -6.9427    1.0585    0.5409 C   0  0  0  0  0  0  0  0  0  0  0  0
   -7.8093    0.7788    1.5677 F   0  0  0  0  0  0  0  0  0  0  0  0
   -7.6187    1.0908   -0.6577 F   0  0  0  0  0  0  0  0  0  0  0  0
   -6.4124    2.3381    0.7354 F   0  0  0  0  0  0  0  0  0  0  0  0
   -4.6766    0.4954   -0.1675 C   0  0  0  0  0  0  0  0  0  0  0  0
    0.0191    0.1968    0.0379 C   0  0  0  0  0  0  0  0  0  0  0  0
    3.1177   -0.0208   -0.3713 N   0  0  0  0  0  0  0  0  0  0  0  0
    4.5018   -0.4507   -0.3275 C   0  0  0  0  0  0  0  0  0  0  0  0
    5.0026   -1.6301    0.2522 C   0  0  0  0  0  0  0  0  0  0  0  0
    6.3658   -2.0104    0.1874 C   0  0  0  0  0  0  0  0  0  0  0  0
    7.1721   -1.1269   -0.4983 C   0  0  0  0  0  0  0  0  0  0  0  0
    6.8235   -0.0635   -1.0551 C   0  0  0  0  0  0  0  0  0  0  0  0
    7.7741    1.1440   -2.0058 Cl  0  0  0  0  0  0  0  0  0  0  0  0
    5.4170    0.3309   -0.9861 C   0  0  0  0  0  0  0  0  0  0  0  0
    2.4628    0.2277   -1.5803 C   0  0  0  0  0  0  0  0  0  0  0  0
    2.6285   -0.6477   -2.6296 N   0  0  0  0  0  0  0  0  0  0  0  0
    1.7747    1.2944   -1.6716 N   0  0  0  0  0  0  0  0  0  0  0  0
  1  2  1  0
  2  3  2  0
  3  4  1  0
  4  5  1  6
  5  6  2  0
  6  7  1  0
  7  8  2  0
  8  9  1  0
  9 10  1  0
 10 11  1  0
 11 12  2  0
 12 13  1  0
 13 14  2  0
 14 15  1  0
 15 16  1  0
 16 17  1  0
 16 18  1  0
 16 19  1  0
 15 20  2  0
  9 21  2  0
  4 22  1  0
 22 23  1  0
 23 24  2  0
 24 25  1  0
 25 26  2  0
 26 27  1  0
 27 28  1  0
 27 29  2  0
 22 30  1  0
 30 31  1  0
 30 32  2  0
 32  2  1  0
 21  5  1  0
 29 23  1  0
 20 11  1  0
M  END
>  <zinc_id>  (996) 
ZINC000013559328

>  <ortholog_name>  (996) 
DRTS_PLAFK

>  <gene_name>  (996) 
DRTS_PLAFK

>  <affinity>  (996) 
8.57

>  <chembldocid>  (996) 
17662

>  <title>  (996) 
None

>  <reference.pubmed_id>  (996) 
14736247

>  <reference.doi>  (996) 
None

>  <reference.chembl_id>  (996) 
CHEMBL1138835

>  <reference.journal>  (996) 
J. Med. Chem.

>  <reference.year>  (996) 
2004

$$$$

     RDKit          3D

 32 35  0  0  0  0  0  0  0  0999 V2000
    1.4008    3.5306   -0.8394 N   0  0  0  0  0  0  0  0  0  0  0  0
    1.6941    2.1333   -0.5751 C   0  0  0  0  0  0  0  0  0  0  0  0
    2.1763    1.9604    0.5339 N   0  0  0  0  0  0  0  0  0  0  0  0
    2.5255    0.3934    0.9623 C   0  0  1  0  0  0  0  0  0  0  0  0
    1.0405   -0.0883    0.8346 C   0  0  0  0  0  0  0  0  0  0  0  0
    0.7402   -1.0239    1.8303 C   0  0  0  0  0  0  0  0  0  0  0  0
   -0.4085   -1.6315    2.0751 C   0  0  0  0  0  0  0  0  0  0  0  0
   -1.4551   -1.2613    1.1712 C   0  0  0  0  0  0  0  0  0  0  0  0
   -1.2098   -0.3555    0.1584 C   0  0  0  0  0  0  0  0  0  0  0  0
   -2.3094   -0.0427   -0.7463 O   0  0  0  0  0  0  0  0  0  0  0  0
   -3.5727   -0.2915   -0.1463 C   0  0  0  0  0  0  0  0  0  0  0  0
   -3.6621   -1.5065    0.5421 C   0  0  0  0  0  0  0  0  0  0  0  0
   -4.8336   -1.9234    1.2166 C   0  0  0  0  0  0  0  0  0  0  0  0
   -5.9132   -1.0098    1.1404 C   0  0  0  0  0  0  0  0  0  0  0  0
   -5.8128    0.1276    0.4714 C   0  0  0  0  0  0  0  0  0  0  0  0
   -6.9427    1.0585    0.5409 C   0  0  0  0  0  0  0  0  0  0  0  0
   -7.8093    0.7788    1.5677 F   0  0  0  0  0  0  0  0  0  0  0  0
   -7.6187    1.0908   -0.6577 F   0  0  0  0  0  0  0  0  0  0  0  0
   -6.4124    2.3381    0.7354 F   0  0  0  0  0  0  0  0  0  0  0  0
   -4.6766    0.4954   -0.1675 C   0  0  0  0  0  0  0  0  0  0  0  0
    0.0191    0.1968    0.0379 C   0  0  0  0  0  0  0  0  0  0  0  0
    3.1177   -0.0208   -0.3713 N   0  0  0  0  0  0  0  0  0  0  0  0
    4.5018   -0.4507   -0.3275 C   0  0  0  0  0  0  0  0  0  0  0  0
    5.0026   -1.6301    0.2522 C   0  0  0  0  0  0  0  0  0  0  0  0
    6.3658   -2.0104    0.1874 C   0  0  0  0  0  0  0  0  0  0  0  0
    7.1721   -1.1269   -0.4983 C   0  0  0  0  0  0  0  0  0  0  0  0
    6.8235   -0.0635   -1.0551 C   0  0  0  0  0  0  0  0  0  0  0  0
    7.7741    1.1440   -2.0058 Cl  0  0  0  0  0  0  0  0  0  0  0  0
    5.4170    0.3309   -0.9861 C   0  0  0  0  0  0  0  0  0  0  0  0
    2.4628    0.2277   -1.5803 C   0  0  0  0  0  0  0  0  0  0  0  0
    2.6285   -0.6477   -2.6296 N   0  0  0  0  0  0  0  0  0  0  0  0
    1.7747    1.2944   -1.6716 N   0  0  0  0  0  0  0  0  0  0  0  0
  1  2  1  0
  2  3  2  0
  3  4  1  0
  4  5  1  6
  5  6  2  0
  6  7  1  0
  7  8  2  0
  8  9  1  0
  9 10  1  0
 10 11  1  0
 11 12  2  0
 12 13  1  0
 13 14  2  0
 14 15  1  0
 15 16  1  0
 16 17  1  0
 16 18  1  0
 16 19  1  0
 15 20  2  0
  9 21  2  0
  4 22  1  0
 22 23  1  0
 23 24  2  0
 24 25  1  0
 25 26  2  0
 26 27  1  0
 27 28  1  0
 27 29  2  0
 22 30  1  0
 30 31  1  0
 30 32  2  0
 32  2  1  0
 21  5  1  0
 29 23  1  0
 20 11  1  0
M  END
>  <zinc_id>  (997) 
ZINC000013559328

>  <ortholog_name>  (997) 
DRTS_PLAFK

>  <gene_name>  (997) 
DRTS_PLAFK

>  <affinity>  (997) 
5.55

>  <chembldocid>  (997) 
17662

>  <title>  (997) 
None

>  <reference.pubmed_id>  (997) 
14736247

>  <reference.doi>  (997) 
None

>  <reference.chembl_id>  (997) 
CHEMBL1138835

>  <reference.journal>  (997) 
J. Med. Chem.

>  <reference.year>  (997) 
2004

$$$$

     RDKit          3D

 32 35  0  0  0  0  0  0  0  0999 V2000
    1.4008    3.5306   -0.8394 N   0  0  0  0  0  0  0  0  0  0  0  0
    1.6941    2.1333   -0.5751 C   0  0  0  0  0  0  0  0  0  0  0  0
    2.1763    1.9604    0.5339 N   0  0  0  0  0  0  0  0  0  0  0  0
    2.5255    0.3934    0.9623 C   0  0  1  0  0  0  0  0  0  0  0  0
    1.0405   -0.0883    0.8346 C   0  0  0  0  0  0  0  0  0  0  0  0
    0.7402   -1.0239    1.8303 C   0  0  0  0  0  0  0  0  0  0  0  0
   -0.4085   -1.6315    2.0751 C   0  0  0  0  0  0  0  0  0  0  0  0
   -1.4551   -1.2613    1.1712 C   0  0  0  0  0  0  0  0  0  0  0  0
   -1.2098   -0.3555    0.1584 C   0  0  0  0  0  0  0  0  0  0  0  0
   -2.3094   -0.0427   -0.7463 O   0  0  0  0  0  0  0  0  0  0  0  0
   -3.5727   -0.2915   -0.1463 C   0  0  0  0  0  0  0  0  0  0  0  0
   -3.6621   -1.5065    0.5421 C   0  0  0  0  0  0  0  0  0  0  0  0
   -4.8336   -1.9234    1.2166 C   0  0  0  0  0  0  0  0  0  0  0  0
   -5.9132   -1.0098    1.1404 C   0  0  0  0  0  0  0  0  0  0  0  0
   -5.8128    0.1276    0.4714 C   0  0  0  0  0  0  0  0  0  0  0  0
   -6.9427    1.0585    0.5409 C   0  0  0  0  0  0  0  0  0  0  0  0
   -7.8093    0.7788    1.5677 F   0  0  0  0  0  0  0  0  0  0  0  0
   -7.6187    1.0908   -0.6577 F   0  0  0  0  0  0  0  0  0  0  0  0
   -6.4124    2.3381    0.7354 F   0  0  0  0  0  0  0  0  0  0  0  0
   -4.6766    0.4954   -0.1675 C   0  0  0  0  0  0  0  0  0  0  0  0
    0.0191    0.1968    0.0379 C   0  0  0  0  0  0  0  0  0  0  0  0
    3.1177   -0.0208   -0.3713 N   0  0  0  0  0  0  0  0  0  0  0  0
    4.5018   -0.4507   -0.3275 C   0  0  0  0  0  0  0  0  0  0  0  0
    5.0026   -1.6301    0.2522 C   0  0  0  0  0  0  0  0  0  0  0  0
    6.3658   -2.0104    0.1874 C   0  0  0  0  0  0  0  0  0  0  0  0
    7.1721   -1.1269   -0.4983 C   0  0  0  0  0  0  0  0  0  0  0  0
    6.8235   -0.0635   -1.0551 C   0  0  0  0  0  0  0  0  0  0  0  0
    7.7741    1.1440   -2.0058 Cl  0  0  0  0  0  0  0  0  0  0  0  0
    5.4170    0.3309   -0.9861 C   0  0  0  0  0  0  0  0  0  0  0  0
    2.4628    0.2277   -1.5803 C   0  0  0  0  0  0  0  0  0  0  0  0
    2.6285   -0.6477   -2.6296 N   0  0  0  0  0  0  0  0  0  0  0  0
    1.7747    1.2944   -1.6716 N   0  0  0  0  0  0  0  0  0  0  0  0
  1  2  1  0
  2  3  2  0
  3  4  1  0
  4  5  1  6
  5  6  2  0
  6  7  1  0
  7  8  2  0
  8  9  1  0
  9 10  1  0
 10 11  1  0
 11 12  2  0
 12 13  1  0
 13 14  2  0
 14 15  1  0
 15 16  1  0
 16 17  1  0
 16 18  1  0
 16 19  1  0
 15 20  2  0
  9 21  2  0
  4 22  1  0
 22 23  1  0
 23 24  2  0
 24 25  1  0
 25 26  2  0
 26 27  1  0
 27 28  1  0
 27 29  2  0
 22 30  1  0
 30 31  1  0
 30 32  2  0
 32  2  1  0
 21  5  1  0
 29 23  1  0
 20 11  1  0
M  END
>  <zinc_id>  (998) 
ZINC000013559328

>  <ortholog_name>  (998) 
DRTS_PLAFK

>  <gene_name>  (998) 
DRTS_PLAFK

>  <affinity>  (998) 
5.49

>  <chembldocid>  (998) 
17662

>  <title>  (998) 
None

>  <reference.pubmed_id>  (998) 
14736247

>  <reference.doi>  (998) 
None

>  <reference.chembl_id>  (998) 
CHEMBL1138835

>  <reference.journal>  (998) 
J. Med. Chem.

>  <reference.year>  (998) 
2004

$$$$

     RDKit          3D

 32 35  0  0  0  0  0  0  0  0999 V2000
    1.4008    3.5306   -0.8394 N   0  0  0  0  0  0  0  0  0  0  0  0
    1.6941    2.1333   -0.5751 C   0  0  0  0  0  0  0  0  0  0  0  0
    2.1763    1.9604    0.5339 N   0  0  0  0  0  0  0  0  0  0  0  0
    2.5255    0.3934    0.9623 C   0  0  1  0  0  0  0  0  0  0  0  0
    1.0405   -0.0883    0.8346 C   0  0  0  0  0  0  0  0  0  0  0  0
    0.7402   -1.0239    1.8303 C   0  0  0  0  0  0  0  0  0  0  0  0
   -0.4085   -1.6315    2.0751 C   0  0  0  0  0  0  0  0  0  0  0  0
   -1.4551   -1.2613    1.1712 C   0  0  0  0  0  0  0  0  0  0  0  0
   -1.2098   -0.3555    0.1584 C   0  0  0  0  0  0  0  0  0  0  0  0
   -2.3094   -0.0427   -0.7463 O   0  0  0  0  0  0  0  0  0  0  0  0
   -3.5727   -0.2915   -0.1463 C   0  0  0  0  0  0  0  0  0  0  0  0
   -3.6621   -1.5065    0.5421 C   0  0  0  0  0  0  0  0  0  0  0  0
   -4.8336   -1.9234    1.2166 C   0  0  0  0  0  0  0  0  0  0  0  0
   -5.9132   -1.0098    1.1404 C   0  0  0  0  0  0  0  0  0  0  0  0
   -5.8128    0.1276    0.4714 C   0  0  0  0  0  0  0  0  0  0  0  0
   -6.9427    1.0585    0.5409 C   0  0  0  0  0  0  0  0  0  0  0  0
   -7.8093    0.7788    1.5677 F   0  0  0  0  0  0  0  0  0  0  0  0
   -7.6187    1.0908   -0.6577 F   0  0  0  0  0  0  0  0  0  0  0  0
   -6.4124    2.3381    0.7354 F   0  0  0  0  0  0  0  0  0  0  0  0
   -4.6766    0.4954   -0.1675 C   0  0  0  0  0  0  0  0  0  0  0  0
    0.0191    0.1968    0.0379 C   0  0  0  0  0  0  0  0  0  0  0  0
    3.1177   -0.0208   -0.3713 N   0  0  0  0  0  0  0  0  0  0  0  0
    4.5018   -0.4507   -0.3275 C   0  0  0  0  0  0  0  0  0  0  0  0
    5.0026   -1.6301    0.2522 C   0  0  0  0  0  0  0  0  0  0  0  0
    6.3658   -2.0104    0.1874 C   0  0  0  0  0  0  0  0  0  0  0  0
    7.1721   -1.1269   -0.4983 C   0  0  0  0  0  0  0  0  0  0  0  0
    6.8235   -0.0635   -1.0551 C   0  0  0  0  0  0  0  0  0  0  0  0
    7.7741    1.1440   -2.0058 Cl  0  0  0  0  0  0  0  0  0  0  0  0
    5.4170    0.3309   -0.9861 C   0  0  0  0  0  0  0  0  0  0  0  0
    2.4628    0.2277   -1.5803 C   0  0  0  0  0  0  0  0  0  0  0  0
    2.6285   -0.6477   -2.6296 N   0  0  0  0  0  0  0  0  0  0  0  0
    1.7747    1.2944   -1.6716 N   0  0  0  0  0  0  0  0  0  0  0  0
  1  2  1  0
  2  3  2  0
  3  4  1  0
  4  5  1  6
  5  6  2  0
  6  7  1  0
  7  8  2  0
  8  9  1  0
  9 10  1  0
 10 11  1  0
 11 12  2  0
 12 13  1  0
 13 14  2  0
 14 15  1  0
 15 16  1  0
 16 17  1  0
 16 18  1  0
 16 19  1  0
 15 20  2  0
  9 21  2  0
  4 22  1  0
 22 23  1  0
 23 24  2  0
 24 25  1  0
 25 26  2  0
 26 27  1  0
 27 28  1  0
 27 29  2  0
 22 30  1  0
 30 31  1  0
 30 32  2  0
 32  2  1  0
 21  5  1  0
 29 23  1  0
 20 11  1  0
M  END
>  <zinc_id>  (999) 
ZINC000013559328

>  <ortholog_name>  (999) 
DRTS_PLAFK

>  <gene_name>  (999) 
DRTS_PLAFK

>  <affinity>  (999) 
5.47

>  <chembldocid>  (999) 
17662

>  <title>  (999) 
None

>  <reference.pubmed_id>  (999) 
14736247

>  <reference.doi>  (999) 
None

>  <reference.chembl_id>  (999) 
CHEMBL1138835

>  <reference.journal>  (999) 
J. Med. Chem.

>  <reference.year>  (999) 
2004

$$$$

     RDKit          3D

 32 35  0  0  0  0  0  0  0  0999 V2000
    1.4008    3.5306   -0.8394 N   0  0  0  0  0  0  0  0  0  0  0  0
    1.6941    2.1333   -0.5751 C   0  0  0  0  0  0  0  0  0  0  0  0
    2.1763    1.9604    0.5339 N   0  0  0  0  0  0  0  0  0  0  0  0
    2.5255    0.3934    0.9623 C   0  0  1  0  0  0  0  0  0  0  0  0
    1.0405   -0.0883    0.8346 C   0  0  0  0  0  0  0  0  0  0  0  0
    0.7402   -1.0239    1.8303 C   0  0  0  0  0  0  0  0  0  0  0  0
   -0.4085   -1.6315    2.0751 C   0  0  0  0  0  0  0  0  0  0  0  0
   -1.4551   -1.2613    1.1712 C   0  0  0  0  0  0  0  0  0  0  0  0
   -1.2098   -0.3555    0.1584 C   0  0  0  0  0  0  0  0  0  0  0  0
   -2.3094   -0.0427   -0.7463 O   0  0  0  0  0  0  0  0  0  0  0  0
   -3.5727   -0.2915   -0.1463 C   0  0  0  0  0  0  0  0  0  0  0  0
   -3.6621   -1.5065    0.5421 C   0  0  0  0  0  0  0  0  0  0  0  0
   -4.8336   -1.9234    1.2166 C   0  0  0  0  0  0  0  0  0  0  0  0
   -5.9132   -1.0098    1.1404 C   0  0  0  0  0  0  0  0  0  0  0  0
   -5.8128    0.1276    0.4714 C   0  0  0  0  0  0  0  0  0  0  0  0
   -6.9427    1.0585    0.5409 C   0  0  0  0  0  0  0  0  0  0  0  0
   -7.8093    0.7788    1.5677 F   0  0  0  0  0  0  0  0  0  0  0  0
   -7.6187    1.0908   -0.6577 F   0  0  0  0  0  0  0  0  0  0  0  0
   -6.4124    2.3381    0.7354 F   0  0  0  0  0  0  0  0  0  0  0  0
   -4.6766    0.4954   -0.1675 C   0  0  0  0  0  0  0  0  0  0  0  0
    0.0191    0.1968    0.0379 C   0  0  0  0  0  0  0  0  0  0  0  0
    3.1177   -0.0208   -0.3713 N   0  0  0  0  0  0  0  0  0  0  0  0
    4.5018   -0.4507   -0.3275 C   0  0  0  0  0  0  0  0  0  0  0  0
    5.0026   -1.6301    0.2522 C   0  0  0  0  0  0  0  0  0  0  0  0
    6.3658   -2.0104    0.1874 C   0  0  0  0  0  0  0  0  0  0  0  0
    7.1721   -1.1269   -0.4983 C   0  0  0  0  0  0  0  0  0  0  0  0
    6.8235   -0.0635   -1.0551 C   0  0  0  0  0  0  0  0  0  0  0  0
    7.7741    1.1440   -2.0058 Cl  0  0  0  0  0  0  0  0  0  0  0  0
    5.4170    0.3309   -0.9861 C   0  0  0  0  0  0  0  0  0  0  0  0
    2.4628    0.2277   -1.5803 C   0  0  0  0  0  0  0  0  0  0  0  0
    2.6285   -0.6477   -2.6296 N   0  0  0  0  0  0  0  0  0  0  0  0
    1.7747    1.2944   -1.6716 N   0  0  0  0  0  0  0  0  0  0  0  0
  1  2  1  0
  2  3  2  0
  3  4  1  0
  4  5  1  6
  5  6  2  0
  6  7  1  0
  7  8  2  0
  8  9  1  0
  9 10  1  0
 10 11  1  0
 11 12  2  0
 12 13  1  0
 13 14  2  0
 14 15  1  0
 15 16  1  0
 16 17  1  0
 16 18  1  0
 16 19  1  0
 15 20  2  0
  9 21  2  0
  4 22  1  0
 22 23  1  0
 23 24  2  0
 24 25  1  0
 25 26  2  0
 26 27  1  0
 27 28  1  0
 27 29  2  0
 22 30  1  0
 30 31  1  0
 30 32  2  0
 32  2  1  0
 21  5  1  0
 29 23  1  0
 20 11  1  0
M  END
>  <zinc_id>  (1000) 
ZINC000013559328

>  <ortholog_name>  (1000) 
DRTS_PLAFK

>  <gene_name>  (1000) 
DRTS_PLAFK

>  <affinity>  (1000) 
8.32

>  <chembldocid>  (1000) 
17662

>  <title>  (1000) 
None

>  <reference.pubmed_id>  (1000) 
14736247

>  <reference.doi>  (1000) 
None

>  <reference.chembl_id>  (1000) 
CHEMBL1138835

>  <reference.journal>  (1000) 
J. Med. Chem.

>  <reference.year>  (1000) 
2004

$$$$

     RDKit          3D

 32 35  0  0  0  0  0  0  0  0999 V2000
    1.6030    4.4151   -0.1645 N   0  0  0  0  0  0  0  0  0  0  0  0
    1.8220    2.9732   -0.1569 C   0  0  0  0  0  0  0  0  0  0  0  0
    1.9228    2.4692    0.9640 N   0  0  0  0  0  0  0  0  0  0  0  0
    2.1235    0.8579    1.0201 C   0  0  1  0  0  0  0  0  0  0  0  0
    0.6514    0.5159    0.4231 C   0  0  0  0  0  0  0  0  0  0  0  0
    0.0620    1.2835   -0.4552 C   0  0  0  0  0  0  0  0  0  0  0  0
   -1.1873    1.0172   -0.9456 C   0  0  0  0  0  0  0  0  0  0  0  0
   -1.8182   -0.0960   -0.4872 C   0  0  0  0  0  0  0  0  0  0  0  0
   -1.2074   -0.9311    0.4543 C   0  0  0  0  0  0  0  0  0  0  0  0
   -1.9188   -2.0742    0.9038 O   0  0  0  0  0  0  0  0  0  0  0  0
   -3.3077   -1.8514    1.0668 C   0  0  0  0  0  0  0  0  0  0  0  0
   -4.0466   -2.4254    2.0605 C   0  0  0  0  0  0  0  0  0  0  0  0
   -5.4288   -2.1223    2.0852 C   0  0  0  0  0  0  0  0  0  0  0  0
   -6.0212   -1.2909    1.1673 C   0  0  0  0  0  0  0  0  0  0  0  0
   -5.2479   -0.7205    0.1806 C   0  0  0  0  0  0  0  0  0  0  0  0
   -5.8216    0.2050   -0.8379 C   0  0  0  0  0  0  0  0  0  0  0  0
   -6.8622   -0.4834   -1.4493 F   0  0  0  0  0  0  0  0  0  0  0  0
   -6.3671    1.2914   -0.2148 F   0  0  0  0  0  0  0  0  0  0  0  0
   -4.8892    0.6112   -1.7467 F   0  0  0  0  0  0  0  0  0  0  0  0
   -3.9361   -1.0210    0.1673 C   0  0  0  0  0  0  0  0  0  0  0  0
    0.0593   -0.6135    0.9142 C   0  0  0  0  0  0  0  0  0  0  0  0
    2.9798    0.6955   -0.2497 N   0  0  0  0  0  0  0  0  0  0  0  0
    4.2160   -0.0260   -0.0445 C   0  0  0  0  0  0  0  0  0  0  0  0
    5.2785    0.7548    0.4296 C   0  0  0  0  0  0  0  0  0  0  0  0
    6.5249    0.1992    0.6980 C   0  0  0  0  0  0  0  0  0  0  0  0
    6.7119   -1.1433    0.4847 C   0  0  0  0  0  0  0  0  0  0  0  0
    5.6620   -1.9070    0.0224 C   0  0  0  0  0  0  0  0  0  0  0  0
    5.9673   -3.6115   -0.1688 Cl  0  0  0  0  0  0  0  0  0  0  0  0
    4.4072   -1.3387   -0.2432 C   0  0  0  0  0  0  0  0  0  0  0  0
    2.7432    1.2990   -1.4640 C   0  0  0  0  0  0  0  0  0  0  0  0
    3.1426    0.6147   -2.6359 N   0  0  0  0  0  0  0  0  0  0  0  0
    2.1825    2.4536   -1.4209 N   0  0  0  0  0  0  0  0  0  0  0  0
  1  2  1  0
  2  3  2  0
  3  4  1  0
  4  5  1  6
  5  6  2  0
  6  7  1  0
  7  8  2  0
  8  9  1  0
  9 10  1  0
 10 11  1  0
 11 12  2  0
 12 13  1  0
 13 14  2  0
 14 15  1  0
 15 16  1  0
 16 17  1  0
 16 18  1  0
 16 19  1  0
 15 20  2  0
  9 21  2  0
  4 22  1  0
 22 23  1  0
 23 24  2  0
 24 25  1  0
 25 26  2  0
 26 27  1  0
 27 28  1  0
 27 29  2  0
 22 30  1  0
 30 31  1  0
 30 32  2  0
 32  2  1  0
 21  5  1  0
 29 23  1  0
 20 11  1  0
M  END
>  <zinc_id>  (1001) 
ZINC000013559328

>  <ortholog_name>  (1001) 
DRTS_PLAFK

>  <gene_name>  (1001) 
DRTS_PLAFK

>  <affinity>  (1001) 
8.19

>  <chembldocid>  (1001) 
17662

>  <title>  (1001) 
None

>  <reference.pubmed_id>  (1001) 
14736247

>  <reference.doi>  (1001) 
None

>  <reference.chembl_id>  (1001) 
CHEMBL1138835

>  <reference.journal>  (1001) 
J. Med. Chem.

>  <reference.year>  (1001) 
2004

$$$$

     RDKit          3D

 32 35  0  0  0  0  0  0  0  0999 V2000
   -0.7269   -3.6084   -0.9963 N   0  0  0  0  0  0  0  0  0  0  0  0
   -1.4888   -2.4172   -0.7369 C   0  0  0  0  0  0  0  0  0  0  0  0
   -1.6555   -1.5693   -1.5900 N   0  0  0  0  0  0  0  0  0  0  0  0
   -2.4577   -0.2329   -1.3583 C   0  0  2  0  0  0  0  0  0  0  0  0
   -1.2431    0.5566   -0.5615 C   0  0  0  0  0  0  0  0  0  0  0  0
   -1.5883    1.3853    0.4136 C   0  0  0  0  0  0  0  0  0  0  0  0
   -0.5410    1.9946    1.1365 C   0  0  0  0  0  0  0  0  0  0  0  0
    0.7821    1.7384    0.8264 C   0  0  0  0  0  0  0  0  0  0  0  0
    1.0826    0.8486   -0.2298 C   0  0  0  0  0  0  0  0  0  0  0  0
    2.3681    0.5783   -0.5722 O   0  0  0  0  0  0  0  0  0  0  0  0
    3.2691   -0.2665   -0.0513 C   0  0  0  0  0  0  0  0  0  0  0  0
    3.1299   -1.4933    0.5528 C   0  0  0  0  0  0  0  0  0  0  0  0
    4.2462   -2.2248    1.0420 C   0  0  0  0  0  0  0  0  0  0  0  0
    5.5128   -1.7052    0.9146 C   0  0  0  0  0  0  0  0  0  0  0  0
    5.7089   -0.4765    0.3132 C   0  0  0  0  0  0  0  0  0  0  0  0
    7.0290    0.1641    0.1240 C   0  0  0  0  0  0  0  0  0  0  0  0
    8.0778   -0.6574    0.3205 F   0  0  0  0  0  0  0  0  0  0  0  0
    7.1770    1.2717    1.0008 F   0  0  0  0  0  0  0  0  0  0  0  0
    7.0382    0.7263   -1.1428 F   0  0  0  0  0  0  0  0  0  0  0  0
    4.5879    0.1827   -0.1402 C   0  0  0  0  0  0  0  0  0  0  0  0
    0.0444    0.2517   -0.9250 C   0  0  0  0  0  0  0  0  0  0  0  0
   -3.2631   -0.5409   -0.0598 N   0  0  0  0  0  0  0  0  0  0  0  0
   -4.3861    0.3041    0.0323 C   0  0  0  0  0  0  0  0  0  0  0  0
   -5.6073   -0.2187   -0.3441 C   0  0  0  0  0  0  0  0  0  0  0  0
   -6.7490    0.5909   -0.3541 C   0  0  0  0  0  0  0  0  0  0  0  0
   -6.6283    1.9113    0.0162 C   0  0  0  0  0  0  0  0  0  0  0  0
   -5.4286    2.4674    0.3958 C   0  0  0  0  0  0  0  0  0  0  0  0
   -5.2284    4.1093    0.9086 Cl  0  0  0  0  0  0  0  0  0  0  0  0
   -4.3165    1.6442    0.3957 C   0  0  0  0  0  0  0  0  0  0  0  0
   -2.9863   -1.4962    0.8400 C   0  0  0  0  0  0  0  0  0  0  0  0
   -3.6078   -1.4526    2.1447 N   0  0  0  0  0  0  0  0  0  0  0  0
   -2.1513   -2.3656    0.4801 N   0  0  0  0  0  0  0  0  0  0  0  0
  1  2  1  0
  2  3  2  0
  3  4  1  0
  4  5  1  1
  5  6  2  0
  6  7  1  0
  7  8  2  0
  8  9  1  0
  9 10  1  0
 10 11  1  0
 11 12  2  0
 12 13  1  0
 13 14  2  0
 14 15  1  0
 15 16  1  0
 16 17  1  0
 16 18  1  0
 16 19  1  0
 15 20  2  0
  9 21  2  0
  4 22  1  0
 22 23  1  0
 23 24  2  0
 24 25  1  0
 25 26  2  0
 26 27  1  0
 27 28  1  0
 27 29  2  0
 22 30  1  0
 30 31  1  0
 30 32  2  0
 32  2  1  0
 21  5  1  0
 29 23  1  0
 20 11  1  0
M  END
>  <zinc_id>  (1002) 
ZINC000013559329

>  <ortholog_name>  (1002) 
DRTS_PLAFK

>  <gene_name>  (1002) 
DRTS_PLAFK

>  <affinity>  (1002) 
9.22

>  <chembldocid>  (1002) 
17662

>  <title>  (1002) 
None

>  <reference.pubmed_id>  (1002) 
14736247

>  <reference.doi>  (1002) 
None

>  <reference.chembl_id>  (1002) 
CHEMBL1138835

>  <reference.journal>  (1002) 
J. Med. Chem.

>  <reference.year>  (1002) 
2004

$$$$

     RDKit          3D

 32 35  0  0  0  0  0  0  0  0999 V2000
   -0.7269   -3.6084   -0.9963 N   0  0  0  0  0  0  0  0  0  0  0  0
   -1.4888   -2.4172   -0.7369 C   0  0  0  0  0  0  0  0  0  0  0  0
   -1.6555   -1.5693   -1.5900 N   0  0  0  0  0  0  0  0  0  0  0  0
   -2.4577   -0.2329   -1.3583 C   0  0  2  0  0  0  0  0  0  0  0  0
   -1.2431    0.5566   -0.5615 C   0  0  0  0  0  0  0  0  0  0  0  0
   -1.5883    1.3853    0.4136 C   0  0  0  0  0  0  0  0  0  0  0  0
   -0.5410    1.9946    1.1365 C   0  0  0  0  0  0  0  0  0  0  0  0
    0.7821    1.7384    0.8264 C   0  0  0  0  0  0  0  0  0  0  0  0
    1.0826    0.8486   -0.2298 C   0  0  0  0  0  0  0  0  0  0  0  0
    2.3681    0.5783   -0.5722 O   0  0  0  0  0  0  0  0  0  0  0  0
    3.2691   -0.2665   -0.0513 C   0  0  0  0  0  0  0  0  0  0  0  0
    3.1299   -1.4933    0.5528 C   0  0  0  0  0  0  0  0  0  0  0  0
    4.2462   -2.2248    1.0420 C   0  0  0  0  0  0  0  0  0  0  0  0
    5.5128   -1.7052    0.9146 C   0  0  0  0  0  0  0  0  0  0  0  0
    5.7089   -0.4765    0.3132 C   0  0  0  0  0  0  0  0  0  0  0  0
    7.0290    0.1641    0.1240 C   0  0  0  0  0  0  0  0  0  0  0  0
    8.0778   -0.6574    0.3205 F   0  0  0  0  0  0  0  0  0  0  0  0
    7.1770    1.2717    1.0008 F   0  0  0  0  0  0  0  0  0  0  0  0
    7.0382    0.7263   -1.1428 F   0  0  0  0  0  0  0  0  0  0  0  0
    4.5879    0.1827   -0.1402 C   0  0  0  0  0  0  0  0  0  0  0  0
    0.0444    0.2517   -0.9250 C   0  0  0  0  0  0  0  0  0  0  0  0
   -3.2631   -0.5409   -0.0598 N   0  0  0  0  0  0  0  0  0  0  0  0
   -4.3861    0.3041    0.0323 C   0  0  0  0  0  0  0  0  0  0  0  0
   -5.6073   -0.2187   -0.3441 C   0  0  0  0  0  0  0  0  0  0  0  0
   -6.7490    0.5909   -0.3541 C   0  0  0  0  0  0  0  0  0  0  0  0
   -6.6283    1.9113    0.0162 C   0  0  0  0  0  0  0  0  0  0  0  0
   -5.4286    2.4674    0.3958 C   0  0  0  0  0  0  0  0  0  0  0  0
   -5.2284    4.1093    0.9086 Cl  0  0  0  0  0  0  0  0  0  0  0  0
   -4.3165    1.6442    0.3957 C   0  0  0  0  0  0  0  0  0  0  0  0
   -2.9863   -1.4962    0.8400 C   0  0  0  0  0  0  0  0  0  0  0  0
   -3.6078   -1.4526    2.1447 N   0  0  0  0  0  0  0  0  0  0  0  0
   -2.1513   -2.3656    0.4801 N   0  0  0  0  0  0  0  0  0  0  0  0
  1  2  1  0
  2  3  2  0
  3  4  1  0
  4  5  1  1
  5  6  2  0
  6  7  1  0
  7  8  2  0
  8  9  1  0
  9 10  1  0
 10 11  1  0
 11 12  2  0
 12 13  1  0
 13 14  2  0
 14 15  1  0
 15 16  1  0
 16 17  1  0
 16 18  1  0
 16 19  1  0
 15 20  2  0
  9 21  2  0
  4 22  1  0
 22 23  1  0
 23 24  2  0
 24 25  1  0
 25 26  2  0
 26 27  1  0
 27 28  1  0
 27 29  2  0
 22 30  1  0
 30 31  1  0
 30 32  2  0
 32  2  1  0
 21  5  1  0
 29 23  1  0
 20 11  1  0
M  END
>  <zinc_id>  (1003) 
ZINC000013559329

>  <ortholog_name>  (1003) 
DRTS_PLAFK

>  <gene_name>  (1003) 
DRTS_PLAFK

>  <affinity>  (1003) 
6.74

>  <chembldocid>  (1003) 
17662

>  <title>  (1003) 
None

>  <reference.pubmed_id>  (1003) 
14736247

>  <reference.doi>  (1003) 
None

>  <reference.chembl_id>  (1003) 
CHEMBL1138835

>  <reference.journal>  (1003) 
J. Med. Chem.

>  <reference.year>  (1003) 
2004

$$$$

     RDKit          3D

 32 35  0  0  0  0  0  0  0  0999 V2000
   -0.7269   -3.6084   -0.9963 N   0  0  0  0  0  0  0  0  0  0  0  0
   -1.4888   -2.4172   -0.7369 C   0  0  0  0  0  0  0  0  0  0  0  0
   -1.6555   -1.5693   -1.5900 N   0  0  0  0  0  0  0  0  0  0  0  0
   -2.4577   -0.2329   -1.3583 C   0  0  2  0  0  0  0  0  0  0  0  0
   -1.2431    0.5566   -0.5615 C   0  0  0  0  0  0  0  0  0  0  0  0
   -1.5883    1.3853    0.4136 C   0  0  0  0  0  0  0  0  0  0  0  0
   -0.5410    1.9946    1.1365 C   0  0  0  0  0  0  0  0  0  0  0  0
    0.7821    1.7384    0.8264 C   0  0  0  0  0  0  0  0  0  0  0  0
    1.0826    0.8486   -0.2298 C   0  0  0  0  0  0  0  0  0  0  0  0
    2.3681    0.5783   -0.5722 O   0  0  0  0  0  0  0  0  0  0  0  0
    3.2691   -0.2665   -0.0513 C   0  0  0  0  0  0  0  0  0  0  0  0
    3.1299   -1.4933    0.5528 C   0  0  0  0  0  0  0  0  0  0  0  0
    4.2462   -2.2248    1.0420 C   0  0  0  0  0  0  0  0  0  0  0  0
    5.5128   -1.7052    0.9146 C   0  0  0  0  0  0  0  0  0  0  0  0
    5.7089   -0.4765    0.3132 C   0  0  0  0  0  0  0  0  0  0  0  0
    7.0290    0.1641    0.1240 C   0  0  0  0  0  0  0  0  0  0  0  0
    8.0778   -0.6574    0.3205 F   0  0  0  0  0  0  0  0  0  0  0  0
    7.1770    1.2717    1.0008 F   0  0  0  0  0  0  0  0  0  0  0  0
    7.0382    0.7263   -1.1428 F   0  0  0  0  0  0  0  0  0  0  0  0
    4.5879    0.1827   -0.1402 C   0  0  0  0  0  0  0  0  0  0  0  0
    0.0444    0.2517   -0.9250 C   0  0  0  0  0  0  0  0  0  0  0  0
   -3.2631   -0.5409   -0.0598 N   0  0  0  0  0  0  0  0  0  0  0  0
   -4.3861    0.3041    0.0323 C   0  0  0  0  0  0  0  0  0  0  0  0
   -5.6073   -0.2187   -0.3441 C   0  0  0  0  0  0  0  0  0  0  0  0
   -6.7490    0.5909   -0.3541 C   0  0  0  0  0  0  0  0  0  0  0  0
   -6.6283    1.9113    0.0162 C   0  0  0  0  0  0  0  0  0  0  0  0
   -5.4286    2.4674    0.3958 C   0  0  0  0  0  0  0  0  0  0  0  0
   -5.2284    4.1093    0.9086 Cl  0  0  0  0  0  0  0  0  0  0  0  0
   -4.3165    1.6442    0.3957 C   0  0  0  0  0  0  0  0  0  0  0  0
   -2.9863   -1.4962    0.8400 C   0  0  0  0  0  0  0  0  0  0  0  0
   -3.6078   -1.4526    2.1447 N   0  0  0  0  0  0  0  0  0  0  0  0
   -2.1513   -2.3656    0.4801 N   0  0  0  0  0  0  0  0  0  0  0  0
  1  2  1  0
  2  3  2  0
  3  4  1  0
  4  5  1  1
  5  6  2  0
  6  7  1  0
  7  8  2  0
  8  9  1  0
  9 10  1  0
 10 11  1  0
 11 12  2  0
 12 13  1  0
 13 14  2  0
 14 15  1  0
 15 16  1  0
 16 17  1  0
 16 18  1  0
 16 19  1  0
 15 20  2  0
  9 21  2  0
  4 22  1  0
 22 23  1  0
 23 24  2  0
 24 25  1  0
 25 26  2  0
 26 27  1  0
 27 28  1  0
 27 29  2  0
 22 30  1  0
 30 31  1  0
 30 32  2  0
 32  2  1  0
 21  5  1  0
 29 23  1  0
 20 11  1  0
M  END
>  <zinc_id>  (1004) 
ZINC000013559329

>  <ortholog_name>  (1004) 
DRTS_PLAFK

>  <gene_name>  (1004) 
DRTS_PLAFK

>  <affinity>  (1004) 
8.70

>  <chembldocid>  (1004) 
17662

>  <title>  (1004) 
None

>  <reference.pubmed_id>  (1004) 
14736247

>  <reference.doi>  (1004) 
None

>  <reference.chembl_id>  (1004) 
CHEMBL1138835

>  <reference.journal>  (1004) 
J. Med. Chem.

>  <reference.year>  (1004) 
2004

$$$$

     RDKit          3D

 32 35  0  0  0  0  0  0  0  0999 V2000
   -0.7269   -3.6084   -0.9963 N   0  0  0  0  0  0  0  0  0  0  0  0
   -1.4888   -2.4172   -0.7369 C   0  0  0  0  0  0  0  0  0  0  0  0
   -1.6555   -1.5693   -1.5900 N   0  0  0  0  0  0  0  0  0  0  0  0
   -2.4577   -0.2329   -1.3583 C   0  0  2  0  0  0  0  0  0  0  0  0
   -1.2431    0.5566   -0.5615 C   0  0  0  0  0  0  0  0  0  0  0  0
   -1.5883    1.3853    0.4136 C   0  0  0  0  0  0  0  0  0  0  0  0
   -0.5410    1.9946    1.1365 C   0  0  0  0  0  0  0  0  0  0  0  0
    0.7821    1.7384    0.8264 C   0  0  0  0  0  0  0  0  0  0  0  0
    1.0826    0.8486   -0.2298 C   0  0  0  0  0  0  0  0  0  0  0  0
    2.3681    0.5783   -0.5722 O   0  0  0  0  0  0  0  0  0  0  0  0
    3.2691   -0.2665   -0.0513 C   0  0  0  0  0  0  0  0  0  0  0  0
    3.1299   -1.4933    0.5528 C   0  0  0  0  0  0  0  0  0  0  0  0
    4.2462   -2.2248    1.0420 C   0  0  0  0  0  0  0  0  0  0  0  0
    5.5128   -1.7052    0.9146 C   0  0  0  0  0  0  0  0  0  0  0  0
    5.7089   -0.4765    0.3132 C   0  0  0  0  0  0  0  0  0  0  0  0
    7.0290    0.1641    0.1240 C   0  0  0  0  0  0  0  0  0  0  0  0
    8.0778   -0.6574    0.3205 F   0  0  0  0  0  0  0  0  0  0  0  0
    7.1770    1.2717    1.0008 F   0  0  0  0  0  0  0  0  0  0  0  0
    7.0382    0.7263   -1.1428 F   0  0  0  0  0  0  0  0  0  0  0  0
    4.5879    0.1827   -0.1402 C   0  0  0  0  0  0  0  0  0  0  0  0
    0.0444    0.2517   -0.9250 C   0  0  0  0  0  0  0  0  0  0  0  0
   -3.2631   -0.5409   -0.0598 N   0  0  0  0  0  0  0  0  0  0  0  0
   -4.3861    0.3041    0.0323 C   0  0  0  0  0  0  0  0  0  0  0  0
   -5.6073   -0.2187   -0.3441 C   0  0  0  0  0  0  0  0  0  0  0  0
   -6.7490    0.5909   -0.3541 C   0  0  0  0  0  0  0  0  0  0  0  0
   -6.6283    1.9113    0.0162 C   0  0  0  0  0  0  0  0  0  0  0  0
   -5.4286    2.4674    0.3958 C   0  0  0  0  0  0  0  0  0  0  0  0
   -5.2284    4.1093    0.9086 Cl  0  0  0  0  0  0  0  0  0  0  0  0
   -4.3165    1.6442    0.3957 C   0  0  0  0  0  0  0  0  0  0  0  0
   -2.9863   -1.4962    0.8400 C   0  0  0  0  0  0  0  0  0  0  0  0
   -3.6078   -1.4526    2.1447 N   0  0  0  0  0  0  0  0  0  0  0  0
   -2.1513   -2.3656    0.4801 N   0  0  0  0  0  0  0  0  0  0  0  0
  1  2  1  0
  2  3  2  0
  3  4  1  0
  4  5  1  1
  5  6  2  0
  6  7  1  0
  7  8  2  0
  8  9  1  0
  9 10  1  0
 10 11  1  0
 11 12  2  0
 12 13  1  0
 13 14  2  0
 14 15  1  0
 15 16  1  0
 16 17  1  0
 16 18  1  0
 16 19  1  0
 15 20  2  0
  9 21  2  0
  4 22  1  0
 22 23  1  0
 23 24  2  0
 24 25  1  0
 25 26  2  0
 26 27  1  0
 27 28  1  0
 27 29  2  0
 22 30  1  0
 30 31  1  0
 30 32  2  0
 32  2  1  0
 21  5  1  0
 29 23  1  0
 20 11  1  0
M  END
>  <zinc_id>  (1005) 
ZINC000013559329

>  <ortholog_name>  (1005) 
DRTS_PLAFK

>  <gene_name>  (1005) 
DRTS_PLAFK

>  <affinity>  (1005) 
8.57

>  <chembldocid>  (1005) 
17662

>  <title>  (1005) 
None

>  <reference.pubmed_id>  (1005) 
14736247

>  <reference.doi>  (1005) 
None

>  <reference.chembl_id>  (1005) 
CHEMBL1138835

>  <reference.journal>  (1005) 
J. Med. Chem.

>  <reference.year>  (1005) 
2004

$$$$

     RDKit          3D

 32 35  0  0  0  0  0  0  0  0999 V2000
   -0.7269   -3.6084   -0.9963 N   0  0  0  0  0  0  0  0  0  0  0  0
   -1.4888   -2.4172   -0.7369 C   0  0  0  0  0  0  0  0  0  0  0  0
   -1.6555   -1.5693   -1.5900 N   0  0  0  0  0  0  0  0  0  0  0  0
   -2.4577   -0.2329   -1.3583 C   0  0  2  0  0  0  0  0  0  0  0  0
   -1.2431    0.5566   -0.5615 C   0  0  0  0  0  0  0  0  0  0  0  0
   -1.5883    1.3853    0.4136 C   0  0  0  0  0  0  0  0  0  0  0  0
   -0.5410    1.9946    1.1365 C   0  0  0  0  0  0  0  0  0  0  0  0
    0.7821    1.7384    0.8264 C   0  0  0  0  0  0  0  0  0  0  0  0
    1.0826    0.8486   -0.2298 C   0  0  0  0  0  0  0  0  0  0  0  0
    2.3681    0.5783   -0.5722 O   0  0  0  0  0  0  0  0  0  0  0  0
    3.2691   -0.2665   -0.0513 C   0  0  0  0  0  0  0  0  0  0  0  0
    3.1299   -1.4933    0.5528 C   0  0  0  0  0  0  0  0  0  0  0  0
    4.2462   -2.2248    1.0420 C   0  0  0  0  0  0  0  0  0  0  0  0
    5.5128   -1.7052    0.9146 C   0  0  0  0  0  0  0  0  0  0  0  0
    5.7089   -0.4765    0.3132 C   0  0  0  0  0  0  0  0  0  0  0  0
    7.0290    0.1641    0.1240 C   0  0  0  0  0  0  0  0  0  0  0  0
    8.0778   -0.6574    0.3205 F   0  0  0  0  0  0  0  0  0  0  0  0
    7.1770    1.2717    1.0008 F   0  0  0  0  0  0  0  0  0  0  0  0
    7.0382    0.7263   -1.1428 F   0  0  0  0  0  0  0  0  0  0  0  0
    4.5879    0.1827   -0.1402 C   0  0  0  0  0  0  0  0  0  0  0  0
    0.0444    0.2517   -0.9250 C   0  0  0  0  0  0  0  0  0  0  0  0
   -3.2631   -0.5409   -0.0598 N   0  0  0  0  0  0  0  0  0  0  0  0
   -4.3861    0.3041    0.0323 C   0  0  0  0  0  0  0  0  0  0  0  0
   -5.6073   -0.2187   -0.3441 C   0  0  0  0  0  0  0  0  0  0  0  0
   -6.7490    0.5909   -0.3541 C   0  0  0  0  0  0  0  0  0  0  0  0
   -6.6283    1.9113    0.0162 C   0  0  0  0  0  0  0  0  0  0  0  0
   -5.4286    2.4674    0.3958 C   0  0  0  0  0  0  0  0  0  0  0  0
   -5.2284    4.1093    0.9086 Cl  0  0  0  0  0  0  0  0  0  0  0  0
   -4.3165    1.6442    0.3957 C   0  0  0  0  0  0  0  0  0  0  0  0
   -2.9863   -1.4962    0.8400 C   0  0  0  0  0  0  0  0  0  0  0  0
   -3.6078   -1.4526    2.1447 N   0  0  0  0  0  0  0  0  0  0  0  0
   -2.1513   -2.3656    0.4801 N   0  0  0  0  0  0  0  0  0  0  0  0
  1  2  1  0
  2  3  2  0
  3  4  1  0
  4  5  1  1
  5  6  2  0
  6  7  1  0
  7  8  2  0
  8  9  1  0
  9 10  1  0
 10 11  1  0
 11 12  2  0
 12 13  1  0
 13 14  2  0
 14 15  1  0
 15 16  1  0
 16 17  1  0
 16 18  1  0
 16 19  1  0
 15 20  2  0
  9 21  2  0
  4 22  1  0
 22 23  1  0
 23 24  2  0
 24 25  1  0
 25 26  2  0
 26 27  1  0
 27 28  1  0
 27 29  2  0
 22 30  1  0
 30 31  1  0
 30 32  2  0
 32  2  1  0
 21  5  1  0
 29 23  1  0
 20 11  1  0
M  END
>  <zinc_id>  (1006) 
ZINC000013559329

>  <ortholog_name>  (1006) 
DRTS_PLAFK

>  <gene_name>  (1006) 
DRTS_PLAFK

>  <affinity>  (1006) 
5.55

>  <chembldocid>  (1006) 
17662

>  <title>  (1006) 
None

>  <reference.pubmed_id>  (1006) 
14736247

>  <reference.doi>  (1006) 
None

>  <reference.chembl_id>  (1006) 
CHEMBL1138835

>  <reference.journal>  (1006) 
J. Med. Chem.

>  <reference.year>  (1006) 
2004

$$$$

     RDKit          3D

 32 35  0  0  0  0  0  0  0  0999 V2000
   -0.7269   -3.6084   -0.9963 N   0  0  0  0  0  0  0  0  0  0  0  0
   -1.4888   -2.4172   -0.7369 C   0  0  0  0  0  0  0  0  0  0  0  0
   -1.6555   -1.5693   -1.5900 N   0  0  0  0  0  0  0  0  0  0  0  0
   -2.4577   -0.2329   -1.3583 C   0  0  2  0  0  0  0  0  0  0  0  0
   -1.2431    0.5566   -0.5615 C   0  0  0  0  0  0  0  0  0  0  0  0
   -1.5883    1.3853    0.4136 C   0  0  0  0  0  0  0  0  0  0  0  0
   -0.5410    1.9946    1.1365 C   0  0  0  0  0  0  0  0  0  0  0  0
    0.7821    1.7384    0.8264 C   0  0  0  0  0  0  0  0  0  0  0  0
    1.0826    0.8486   -0.2298 C   0  0  0  0  0  0  0  0  0  0  0  0
    2.3681    0.5783   -0.5722 O   0  0  0  0  0  0  0  0  0  0  0  0
    3.2691   -0.2665   -0.0513 C   0  0  0  0  0  0  0  0  0  0  0  0
    3.1299   -1.4933    0.5528 C   0  0  0  0  0  0  0  0  0  0  0  0
    4.2462   -2.2248    1.0420 C   0  0  0  0  0  0  0  0  0  0  0  0
    5.5128   -1.7052    0.9146 C   0  0  0  0  0  0  0  0  0  0  0  0
    5.7089   -0.4765    0.3132 C   0  0  0  0  0  0  0  0  0  0  0  0
    7.0290    0.1641    0.1240 C   0  0  0  0  0  0  0  0  0  0  0  0
    8.0778   -0.6574    0.3205 F   0  0  0  0  0  0  0  0  0  0  0  0
    7.1770    1.2717    1.0008 F   0  0  0  0  0  0  0  0  0  0  0  0
    7.0382    0.7263   -1.1428 F   0  0  0  0  0  0  0  0  0  0  0  0
    4.5879    0.1827   -0.1402 C   0  0  0  0  0  0  0  0  0  0  0  0
    0.0444    0.2517   -0.9250 C   0  0  0  0  0  0  0  0  0  0  0  0
   -3.2631   -0.5409   -0.0598 N   0  0  0  0  0  0  0  0  0  0  0  0
   -4.3861    0.3041    0.0323 C   0  0  0  0  0  0  0  0  0  0  0  0
   -5.6073   -0.2187   -0.3441 C   0  0  0  0  0  0  0  0  0  0  0  0
   -6.7490    0.5909   -0.3541 C   0  0  0  0  0  0  0  0  0  0  0  0
   -6.6283    1.9113    0.0162 C   0  0  0  0  0  0  0  0  0  0  0  0
   -5.4286    2.4674    0.3958 C   0  0  0  0  0  0  0  0  0  0  0  0
   -5.2284    4.1093    0.9086 Cl  0  0  0  0  0  0  0  0  0  0  0  0
   -4.3165    1.6442    0.3957 C   0  0  0  0  0  0  0  0  0  0  0  0
   -2.9863   -1.4962    0.8400 C   0  0  0  0  0  0  0  0  0  0  0  0
   -3.6078   -1.4526    2.1447 N   0  0  0  0  0  0  0  0  0  0  0  0
   -2.1513   -2.3656    0.4801 N   0  0  0  0  0  0  0  0  0  0  0  0
  1  2  1  0
  2  3  2  0
  3  4  1  0
  4  5  1  1
  5  6  2  0
  6  7  1  0
  7  8  2  0
  8  9  1  0
  9 10  1  0
 10 11  1  0
 11 12  2  0
 12 13  1  0
 13 14  2  0
 14 15  1  0
 15 16  1  0
 16 17  1  0
 16 18  1  0
 16 19  1  0
 15 20  2  0
  9 21  2  0
  4 22  1  0
 22 23  1  0
 23 24  2  0
 24 25  1  0
 25 26  2  0
 26 27  1  0
 27 28  1  0
 27 29  2  0
 22 30  1  0
 30 31  1  0
 30 32  2  0
 32  2  1  0
 21  5  1  0
 29 23  1  0
 20 11  1  0
M  END
>  <zinc_id>  (1007) 
ZINC000013559329

>  <ortholog_name>  (1007) 
DRTS_PLAFK

>  <gene_name>  (1007) 
DRTS_PLAFK

>  <affinity>  (1007) 
5.49

>  <chembldocid>  (1007) 
17662

>  <title>  (1007) 
None

>  <reference.pubmed_id>  (1007) 
14736247

>  <reference.doi>  (1007) 
None

>  <reference.chembl_id>  (1007) 
CHEMBL1138835

>  <reference.journal>  (1007) 
J. Med. Chem.

>  <reference.year>  (1007) 
2004

$$$$

     RDKit          3D

 32 35  0  0  0  0  0  0  0  0999 V2000
   -0.7269   -3.6084   -0.9963 N   0  0  0  0  0  0  0  0  0  0  0  0
   -1.4888   -2.4172   -0.7369 C   0  0  0  0  0  0  0  0  0  0  0  0
   -1.6555   -1.5693   -1.5900 N   0  0  0  0  0  0  0  0  0  0  0  0
   -2.4577   -0.2329   -1.3583 C   0  0  2  0  0  0  0  0  0  0  0  0
   -1.2431    0.5566   -0.5615 C   0  0  0  0  0  0  0  0  0  0  0  0
   -1.5883    1.3853    0.4136 C   0  0  0  0  0  0  0  0  0  0  0  0
   -0.5410    1.9946    1.1365 C   0  0  0  0  0  0  0  0  0  0  0  0
    0.7821    1.7384    0.8264 C   0  0  0  0  0  0  0  0  0  0  0  0
    1.0826    0.8486   -0.2298 C   0  0  0  0  0  0  0  0  0  0  0  0
    2.3681    0.5783   -0.5722 O   0  0  0  0  0  0  0  0  0  0  0  0
    3.2691   -0.2665   -0.0513 C   0  0  0  0  0  0  0  0  0  0  0  0
    3.1299   -1.4933    0.5528 C   0  0  0  0  0  0  0  0  0  0  0  0
    4.2462   -2.2248    1.0420 C   0  0  0  0  0  0  0  0  0  0  0  0
    5.5128   -1.7052    0.9146 C   0  0  0  0  0  0  0  0  0  0  0  0
    5.7089   -0.4765    0.3132 C   0  0  0  0  0  0  0  0  0  0  0  0
    7.0290    0.1641    0.1240 C   0  0  0  0  0  0  0  0  0  0  0  0
    8.0778   -0.6574    0.3205 F   0  0  0  0  0  0  0  0  0  0  0  0
    7.1770    1.2717    1.0008 F   0  0  0  0  0  0  0  0  0  0  0  0
    7.0382    0.7263   -1.1428 F   0  0  0  0  0  0  0  0  0  0  0  0
    4.5879    0.1827   -0.1402 C   0  0  0  0  0  0  0  0  0  0  0  0
    0.0444    0.2517   -0.9250 C   0  0  0  0  0  0  0  0  0  0  0  0
   -3.2631   -0.5409   -0.0598 N   0  0  0  0  0  0  0  0  0  0  0  0
   -4.3861    0.3041    0.0323 C   0  0  0  0  0  0  0  0  0  0  0  0
   -5.6073   -0.2187   -0.3441 C   0  0  0  0  0  0  0  0  0  0  0  0
   -6.7490    0.5909   -0.3541 C   0  0  0  0  0  0  0  0  0  0  0  0
   -6.6283    1.9113    0.0162 C   0  0  0  0  0  0  0  0  0  0  0  0
   -5.4286    2.4674    0.3958 C   0  0  0  0  0  0  0  0  0  0  0  0
   -5.2284    4.1093    0.9086 Cl  0  0  0  0  0  0  0  0  0  0  0  0
   -4.3165    1.6442    0.3957 C   0  0  0  0  0  0  0  0  0  0  0  0
   -2.9863   -1.4962    0.8400 C   0  0  0  0  0  0  0  0  0  0  0  0
   -3.6078   -1.4526    2.1447 N   0  0  0  0  0  0  0  0  0  0  0  0
   -2.1513   -2.3656    0.4801 N   0  0  0  0  0  0  0  0  0  0  0  0
  1  2  1  0
  2  3  2  0
  3  4  1  0
  4  5  1  1
  5  6  2  0
  6  7  1  0
  7  8  2  0
  8  9  1  0
  9 10  1  0
 10 11  1  0
 11 12  2  0
 12 13  1  0
 13 14  2  0
 14 15  1  0
 15 16  1  0
 16 17  1  0
 16 18  1  0
 16 19  1  0
 15 20  2  0
  9 21  2  0
  4 22  1  0
 22 23  1  0
 23 24  2  0
 24 25  1  0
 25 26  2  0
 26 27  1  0
 27 28  1  0
 27 29  2  0
 22 30  1  0
 30 31  1  0
 30 32  2  0
 32  2  1  0
 21  5  1  0
 29 23  1  0
 20 11  1  0
M  END
>  <zinc_id>  (1008) 
ZINC000013559329

>  <ortholog_name>  (1008) 
DRTS_PLAFK

>  <gene_name>  (1008) 
DRTS_PLAFK

>  <affinity>  (1008) 
5.47

>  <chembldocid>  (1008) 
17662

>  <title>  (1008) 
None

>  <reference.pubmed_id>  (1008) 
14736247

>  <reference.doi>  (1008) 
None

>  <reference.chembl_id>  (1008) 
CHEMBL1138835

>  <reference.journal>  (1008) 
J. Med. Chem.

>  <reference.year>  (1008) 
2004

$$$$

     RDKit          3D

 32 35  0  0  0  0  0  0  0  0999 V2000
   -0.7269   -3.6084   -0.9963 N   0  0  0  0  0  0  0  0  0  0  0  0
   -1.4888   -2.4172   -0.7369 C   0  0  0  0  0  0  0  0  0  0  0  0
   -1.6555   -1.5693   -1.5900 N   0  0  0  0  0  0  0  0  0  0  0  0
   -2.4577   -0.2329   -1.3583 C   0  0  2  0  0  0  0  0  0  0  0  0
   -1.2431    0.5566   -0.5615 C   0  0  0  0  0  0  0  0  0  0  0  0
   -1.5883    1.3853    0.4136 C   0  0  0  0  0  0  0  0  0  0  0  0
   -0.5410    1.9946    1.1365 C   0  0  0  0  0  0  0  0  0  0  0  0
    0.7821    1.7384    0.8264 C   0  0  0  0  0  0  0  0  0  0  0  0
    1.0826    0.8486   -0.2298 C   0  0  0  0  0  0  0  0  0  0  0  0
    2.3681    0.5783   -0.5722 O   0  0  0  0  0  0  0  0  0  0  0  0
    3.2691   -0.2665   -0.0513 C   0  0  0  0  0  0  0  0  0  0  0  0
    3.1299   -1.4933    0.5528 C   0  0  0  0  0  0  0  0  0  0  0  0
    4.2462   -2.2248    1.0420 C   0  0  0  0  0  0  0  0  0  0  0  0
    5.5128   -1.7052    0.9146 C   0  0  0  0  0  0  0  0  0  0  0  0
    5.7089   -0.4765    0.3132 C   0  0  0  0  0  0  0  0  0  0  0  0
    7.0290    0.1641    0.1240 C   0  0  0  0  0  0  0  0  0  0  0  0
    8.0778   -0.6574    0.3205 F   0  0  0  0  0  0  0  0  0  0  0  0
    7.1770    1.2717    1.0008 F   0  0  0  0  0  0  0  0  0  0  0  0
    7.0382    0.7263   -1.1428 F   0  0  0  0  0  0  0  0  0  0  0  0
    4.5879    0.1827   -0.1402 C   0  0  0  0  0  0  0  0  0  0  0  0
    0.0444    0.2517   -0.9250 C   0  0  0  0  0  0  0  0  0  0  0  0
   -3.2631   -0.5409   -0.0598 N   0  0  0  0  0  0  0  0  0  0  0  0
   -4.3861    0.3041    0.0323 C   0  0  0  0  0  0  0  0  0  0  0  0
   -5.6073   -0.2187   -0.3441 C   0  0  0  0  0  0  0  0  0  0  0  0
   -6.7490    0.5909   -0.3541 C   0  0  0  0  0  0  0  0  0  0  0  0
   -6.6283    1.9113    0.0162 C   0  0  0  0  0  0  0  0  0  0  0  0
   -5.4286    2.4674    0.3958 C   0  0  0  0  0  0  0  0  0  0  0  0
   -5.2284    4.1093    0.9086 Cl  0  0  0  0  0  0  0  0  0  0  0  0
   -4.3165    1.6442    0.3957 C   0  0  0  0  0  0  0  0  0  0  0  0
   -2.9863   -1.4962    0.8400 C   0  0  0  0  0  0  0  0  0  0  0  0
   -3.6078   -1.4526    2.1447 N   0  0  0  0  0  0  0  0  0  0  0  0
   -2.1513   -2.3656    0.4801 N   0  0  0  0  0  0  0  0  0  0  0  0
  1  2  1  0
  2  3  2  0
  3  4  1  0
  4  5  1  1
  5  6  2  0
  6  7  1  0
  7  8  2  0
  8  9  1  0
  9 10  1  0
 10 11  1  0
 11 12  2  0
 12 13  1  0
 13 14  2  0
 14 15  1  0
 15 16  1  0
 16 17  1  0
 16 18  1  0
 16 19  1  0
 15 20  2  0
  9 21  2  0
  4 22  1  0
 22 23  1  0
 23 24  2  0
 24 25  1  0
 25 26  2  0
 26 27  1  0
 27 28  1  0
 27 29  2  0
 22 30  1  0
 30 31  1  0
 30 32  2  0
 32  2  1  0
 21  5  1  0
 29 23  1  0
 20 11  1  0
M  END
>  <zinc_id>  (1009) 
ZINC000013559329

>  <ortholog_name>  (1009) 
DRTS_PLAFK

>  <gene_name>  (1009) 
DRTS_PLAFK

>  <affinity>  (1009) 
8.32

>  <chembldocid>  (1009) 
17662

>  <title>  (1009) 
None

>  <reference.pubmed_id>  (1009) 
14736247

>  <reference.doi>  (1009) 
None

>  <reference.chembl_id>  (1009) 
CHEMBL1138835

>  <reference.journal>  (1009) 
J. Med. Chem.

>  <reference.year>  (1009) 
2004

$$$$

     RDKit          3D

 32 35  0  0  0  0  0  0  0  0999 V2000
   -0.7269   -3.6084   -0.9963 N   0  0  0  0  0  0  0  0  0  0  0  0
   -1.4888   -2.4172   -0.7369 C   0  0  0  0  0  0  0  0  0  0  0  0
   -1.6555   -1.5693   -1.5900 N   0  0  0  0  0  0  0  0  0  0  0  0
   -2.4577   -0.2329   -1.3583 C   0  0  2  0  0  0  0  0  0  0  0  0
   -1.2431    0.5566   -0.5615 C   0  0  0  0  0  0  0  0  0  0  0  0
   -1.5883    1.3853    0.4136 C   0  0  0  0  0  0  0  0  0  0  0  0
   -0.5410    1.9946    1.1365 C   0  0  0  0  0  0  0  0  0  0  0  0
    0.7821    1.7384    0.8264 C   0  0  0  0  0  0  0  0  0  0  0  0
    1.0826    0.8486   -0.2298 C   0  0  0  0  0  0  0  0  0  0  0  0
    2.3681    0.5783   -0.5722 O   0  0  0  0  0  0  0  0  0  0  0  0
    3.2691   -0.2665   -0.0513 C   0  0  0  0  0  0  0  0  0  0  0  0
    3.1299   -1.4933    0.5528 C   0  0  0  0  0  0  0  0  0  0  0  0
    4.2462   -2.2248    1.0420 C   0  0  0  0  0  0  0  0  0  0  0  0
    5.5128   -1.7052    0.9146 C   0  0  0  0  0  0  0  0  0  0  0  0
    5.7089   -0.4765    0.3132 C   0  0  0  0  0  0  0  0  0  0  0  0
    7.0290    0.1641    0.1240 C   0  0  0  0  0  0  0  0  0  0  0  0
    8.0778   -0.6574    0.3205 F   0  0  0  0  0  0  0  0  0  0  0  0
    7.1770    1.2717    1.0008 F   0  0  0  0  0  0  0  0  0  0  0  0
    7.0382    0.7263   -1.1428 F   0  0  0  0  0  0  0  0  0  0  0  0
    4.5879    0.1827   -0.1402 C   0  0  0  0  0  0  0  0  0  0  0  0
    0.0444    0.2517   -0.9250 C   0  0  0  0  0  0  0  0  0  0  0  0
   -3.2631   -0.5409   -0.0598 N   0  0  0  0  0  0  0  0  0  0  0  0
   -4.3861    0.3041    0.0323 C   0  0  0  0  0  0  0  0  0  0  0  0
   -5.6073   -0.2187   -0.3441 C   0  0  0  0  0  0  0  0  0  0  0  0
   -6.7490    0.5909   -0.3541 C   0  0  0  0  0  0  0  0  0  0  0  0
   -6.6283    1.9113    0.0162 C   0  0  0  0  0  0  0  0  0  0  0  0
   -5.4286    2.4674    0.3958 C   0  0  0  0  0  0  0  0  0  0  0  0
   -5.2284    4.1093    0.9086 Cl  0  0  0  0  0  0  0  0  0  0  0  0
   -4.3165    1.6442    0.3957 C   0  0  0  0  0  0  0  0  0  0  0  0
   -2.9863   -1.4962    0.8400 C   0  0  0  0  0  0  0  0  0  0  0  0
   -3.6078   -1.4526    2.1447 N   0  0  0  0  0  0  0  0  0  0  0  0
   -2.1513   -2.3656    0.4801 N   0  0  0  0  0  0  0  0  0  0  0  0
  1  2  1  0
  2  3  2  0
  3  4  1  0
  4  5  1  1
  5  6  2  0
  6  7  1  0
  7  8  2  0
  8  9  1  0
  9 10  1  0
 10 11  1  0
 11 12  2  0
 12 13  1  0
 13 14  2  0
 14 15  1  0
 15 16  1  0
 16 17  1  0
 16 18  1  0
 16 19  1  0
 15 20  2  0
  9 21  2  0
  4 22  1  0
 22 23  1  0
 23 24  2  0
 24 25  1  0
 25 26  2  0
 26 27  1  0
 27 28  1  0
 27 29  2  0
 22 30  1  0
 30 31  1  0
 30 32  2  0
 32  2  1  0
 21  5  1  0
 29 23  1  0
 20 11  1  0
M  END
>  <zinc_id>  (1010) 
ZINC000013559329

>  <ortholog_name>  (1010) 
DRTS_PLAFK

>  <gene_name>  (1010) 
DRTS_PLAFK

>  <affinity>  (1010) 
8.19

>  <chembldocid>  (1010) 
17662

>  <title>  (1010) 
None

>  <reference.pubmed_id>  (1010) 
14736247

>  <reference.doi>  (1010) 
None

>  <reference.chembl_id>  (1010) 
CHEMBL1138835

>  <reference.journal>  (1010) 
J. Med. Chem.

>  <reference.year>  (1010) 
2004

$$$$

     RDKit          3D

 15 16  0  0  0  0  0  0  0  0999 V2000
   -4.8289    0.6334   -0.3840 N   0  0  0  0  0  0  0  0  0  0  0  0
   -3.4034    0.4448   -0.2773 C   0  0  0  0  0  0  0  0  0  0  0  0
   -2.7581    0.0943   -1.3262 N   0  0  0  0  0  0  0  0  0  0  0  0
   -1.3631   -0.1409   -1.4317 C   0  0  0  0  0  0  0  0  0  0  0  0
   -0.7015    0.0627   -0.1773 N   0  0  0  0  0  0  0  0  0  0  0  0
    0.7363   -0.1292   -0.0767 C   0  0  0  0  0  0  0  0  0  0  0  0
    1.3993   -0.5051   -1.2190 C   0  0  0  0  0  0  0  0  0  0  0  0
    2.7827   -0.7148   -1.2257 C   0  0  0  0  0  0  0  0  0  0  0  0
    3.4932   -0.5390   -0.0563 C   0  0  0  0  0  0  0  0  0  0  0  0
    5.2253   -0.8010   -0.0623 Cl  0  0  0  0  0  0  0  0  0  0  0  0
    2.8097   -0.1629    1.0740 C   0  0  0  0  0  0  0  0  0  0  0  0
    1.4334    0.0432    1.0704 C   0  0  0  0  0  0  0  0  0  0  0  0
   -1.4393    0.4504    0.9681 C   0  0  0  0  0  0  0  0  0  0  0  0
   -0.6769    0.6286    2.1795 N   0  0  0  0  0  0  0  0  0  0  0  0
   -2.7088    0.6356    0.9445 N   0  0  0  0  0  0  0  0  0  0  0  0
  1  2  1  0
  2  3  2  0
  3  4  1  0
  4  5  1  0
  5  6  1  0
  6  7  2  0
  7  8  1  0
  8  9  2  0
  9 10  1  0
  9 11  1  0
 11 12  2  0
  5 13  1  0
 13 14  1  0
 13 15  2  0
 15  2  1  0
 12  6  1  0
M  END
>  <zinc_id>  (1011) 
ZINC000013809204

>  <ortholog_name>  (1011) 
DRTS_PLAFK

>  <gene_name>  (1011) 
DRTS_PLAFK

>  <affinity>  (1011) 
9.08

>  <chembldocid>  (1011) 
21047

>  <title>  (1011) 
None

>  <reference.pubmed_id>  (1011) 
15293997

>  <reference.doi>  (1011) 
None

>  <reference.chembl_id>  (1011) 
CHEMBL1138679

>  <reference.journal>  (1011) 
J. Med. Chem.

>  <reference.year>  (1011) 
2004

$$$$

     RDKit          3D

 15 16  0  0  0  0  0  0  0  0999 V2000
   -4.8289    0.6334   -0.3840 N   0  0  0  0  0  0  0  0  0  0  0  0
   -3.4034    0.4448   -0.2773 C   0  0  0  0  0  0  0  0  0  0  0  0
   -2.7581    0.0943   -1.3262 N   0  0  0  0  0  0  0  0  0  0  0  0
   -1.3631   -0.1409   -1.4317 C   0  0  0  0  0  0  0  0  0  0  0  0
   -0.7015    0.0627   -0.1773 N   0  0  0  0  0  0  0  0  0  0  0  0
    0.7363   -0.1292   -0.0767 C   0  0  0  0  0  0  0  0  0  0  0  0
    1.3993   -0.5051   -1.2190 C   0  0  0  0  0  0  0  0  0  0  0  0
    2.7827   -0.7148   -1.2257 C   0  0  0  0  0  0  0  0  0  0  0  0
    3.4932   -0.5390   -0.0563 C   0  0  0  0  0  0  0  0  0  0  0  0
    5.2253   -0.8010   -0.0623 Cl  0  0  0  0  0  0  0  0  0  0  0  0
    2.8097   -0.1629    1.0740 C   0  0  0  0  0  0  0  0  0  0  0  0
    1.4334    0.0432    1.0704 C   0  0  0  0  0  0  0  0  0  0  0  0
   -1.4393    0.4504    0.9681 C   0  0  0  0  0  0  0  0  0  0  0  0
   -0.6769    0.6286    2.1795 N   0  0  0  0  0  0  0  0  0  0  0  0
   -2.7088    0.6356    0.9445 N   0  0  0  0  0  0  0  0  0  0  0  0
  1  2  1  0
  2  3  2  0
  3  4  1  0
  4  5  1  0
  5  6  1  0
  6  7  2  0
  7  8  1  0
  8  9  2  0
  9 10  1  0
  9 11  1  0
 11 12  2  0
  5 13  1  0
 13 14  1  0
 13 15  2  0
 15  2  1  0
 12  6  1  0
M  END
>  <zinc_id>  (1012) 
ZINC000013809204

>  <ortholog_name>  (1012) 
DRTS_PLAFK

>  <gene_name>  (1012) 
DRTS_PLAFK

>  <affinity>  (1012) 
7.61

>  <chembldocid>  (1012) 
15522

>  <title>  (1012) 
None

>  <reference.pubmed_id>  (1012) 
10893311

>  <reference.doi>  (1012) 
None

>  <reference.chembl_id>  (1012) 
CHEMBL1133696

>  <reference.journal>  (1012) 
J. Med. Chem.

>  <reference.year>  (1012) 
2000

$$$$

     RDKit          3D

 15 16  0  0  0  0  0  0  0  0999 V2000
   -4.8289    0.6334   -0.3840 N   0  0  0  0  0  0  0  0  0  0  0  0
   -3.4034    0.4448   -0.2773 C   0  0  0  0  0  0  0  0  0  0  0  0
   -2.7581    0.0943   -1.3262 N   0  0  0  0  0  0  0  0  0  0  0  0
   -1.3631   -0.1409   -1.4317 C   0  0  0  0  0  0  0  0  0  0  0  0
   -0.7015    0.0627   -0.1773 N   0  0  0  0  0  0  0  0  0  0  0  0
    0.7363   -0.1292   -0.0767 C   0  0  0  0  0  0  0  0  0  0  0  0
    1.3993   -0.5051   -1.2190 C   0  0  0  0  0  0  0  0  0  0  0  0
    2.7827   -0.7148   -1.2257 C   0  0  0  0  0  0  0  0  0  0  0  0
    3.4932   -0.5390   -0.0563 C   0  0  0  0  0  0  0  0  0  0  0  0
    5.2253   -0.8010   -0.0623 Cl  0  0  0  0  0  0  0  0  0  0  0  0
    2.8097   -0.1629    1.0740 C   0  0  0  0  0  0  0  0  0  0  0  0
    1.4334    0.0432    1.0704 C   0  0  0  0  0  0  0  0  0  0  0  0
   -1.4393    0.4504    0.9681 C   0  0  0  0  0  0  0  0  0  0  0  0
   -0.6769    0.6286    2.1795 N   0  0  0  0  0  0  0  0  0  0  0  0
   -2.7088    0.6356    0.9445 N   0  0  0  0  0  0  0  0  0  0  0  0
  1  2  1  0
  2  3  2  0
  3  4  1  0
  4  5  1  0
  5  6  1  0
  6  7  2  0
  7  8  1  0
  8  9  2  0
  9 10  1  0
  9 11  1  0
 11 12  2  0
  5 13  1  0
 13 14  1  0
 13 15  2  0
 15  2  1  0
 12  6  1  0
M  END
>  <zinc_id>  (1013) 
ZINC000013809204

>  <ortholog_name>  (1013) 
DRTS_PLAFK

>  <gene_name>  (1013) 
DRTS_PLAFK

>  <affinity>  (1013) 
6.19

>  <chembldocid>  (1013) 
15522

>  <title>  (1013) 
None

>  <reference.pubmed_id>  (1013) 
10893311

>  <reference.doi>  (1013) 
None

>  <reference.chembl_id>  (1013) 
CHEMBL1133696

>  <reference.journal>  (1013) 
J. Med. Chem.

>  <reference.year>  (1013) 
2000

$$$$

     RDKit          3D

 18 19  0  0  0  0  0  0  0  0999 V2000
   -2.4939    3.1173   -0.2371 C   0  0  0  0  0  0  0  0  0  0  0  0
   -2.7204    2.0978    0.8430 C   0  0  0  0  0  0  0  0  0  0  0  0
   -1.4570    1.2763    1.0449 C   0  0  0  0  0  0  0  0  0  0  0  0
   -1.2730    0.6181   -0.4486 C   0  0  2  0  0  0  0  0  0  0  0  0
   -2.6033   -0.0930   -0.4221 N   0  0  0  0  0  0  0  0  0  0  0  0
   -2.8308   -1.2679   -0.1372 C   0  0  0  0  0  0  0  0  0  0  0  0
   -4.2123   -1.6774   -0.1973 N   0  0  0  0  0  0  0  0  0  0  0  0
   -1.8461   -2.1993    0.2313 N   0  0  0  0  0  0  0  0  0  0  0  0
   -0.6392   -1.7630    0.2628 C   0  0  0  0  0  0  0  0  0  0  0  0
    0.3384   -2.7506    0.6454 N   0  0  0  0  0  0  0  0  0  0  0  0
   -0.3059   -0.4502   -0.0458 N   0  0  0  0  0  0  0  0  0  0  0  0
    1.0632   -0.0708    0.0208 C   0  0  0  0  0  0  0  0  0  0  0  0
    2.0571   -0.9421    0.3744 C   0  0  0  0  0  0  0  0  0  0  0  0
    3.3925   -0.6074    0.4488 C   0  0  0  0  0  0  0  0  0  0  0  0
    3.7825    0.6732    0.1556 C   0  0  0  0  0  0  0  0  0  0  0  0
    5.4347    1.2381    0.2075 Cl  0  0  0  0  0  0  0  0  0  0  0  0
    2.8145    1.5754   -0.2031 C   0  0  0  0  0  0  0  0  0  0  0  0
    1.4989    1.2255   -0.2710 C   0  0  0  0  0  0  0  0  0  0  0  0
  1  2  1  0
  2  3  1  0
  4  3  1  1
  4  5  1  0
  5  6  2  0
  6  7  1  0
  6  8  1  0
  8  9  2  0
  9 10  1  0
  9 11  1  0
 11 12  1  0
 12 13  2  0
 13 14  1  0
 14 15  2  0
 15 16  1  0
 15 17  1  0
 17 18  2  0
 11  4  1  0
 18 12  1  0
M  END
>  <zinc_id>  (1014) 
ZINC000013809206

>  <ortholog_name>  (1014) 
DRTS_PLAFK

>  <gene_name>  (1014) 
DRTS_PLAFK

>  <affinity>  (1014) 
6.97

>  <chembldocid>  (1014) 
15522

>  <title>  (1014) 
None

>  <reference.pubmed_id>  (1014) 
10893311

>  <reference.doi>  (1014) 
None

>  <reference.chembl_id>  (1014) 
CHEMBL1133696

>  <reference.journal>  (1014) 
J. Med. Chem.

>  <reference.year>  (1014) 
2000

$$$$

     RDKit          3D

 18 19  0  0  0  0  0  0  0  0999 V2000
   -2.4939    3.1173   -0.2371 C   0  0  0  0  0  0  0  0  0  0  0  0
   -2.7204    2.0978    0.8430 C   0  0  0  0  0  0  0  0  0  0  0  0
   -1.4570    1.2763    1.0449 C   0  0  0  0  0  0  0  0  0  0  0  0
   -1.2730    0.6181   -0.4486 C   0  0  2  0  0  0  0  0  0  0  0  0
   -2.6033   -0.0930   -0.4221 N   0  0  0  0  0  0  0  0  0  0  0  0
   -2.8308   -1.2679   -0.1372 C   0  0  0  0  0  0  0  0  0  0  0  0
   -4.2123   -1.6774   -0.1973 N   0  0  0  0  0  0  0  0  0  0  0  0
   -1.8461   -2.1993    0.2313 N   0  0  0  0  0  0  0  0  0  0  0  0
   -0.6392   -1.7630    0.2628 C   0  0  0  0  0  0  0  0  0  0  0  0
    0.3384   -2.7506    0.6454 N   0  0  0  0  0  0  0  0  0  0  0  0
   -0.3059   -0.4502   -0.0458 N   0  0  0  0  0  0  0  0  0  0  0  0
    1.0632   -0.0708    0.0208 C   0  0  0  0  0  0  0  0  0  0  0  0
    2.0571   -0.9421    0.3744 C   0  0  0  0  0  0  0  0  0  0  0  0
    3.3925   -0.6074    0.4488 C   0  0  0  0  0  0  0  0  0  0  0  0
    3.7825    0.6732    0.1556 C   0  0  0  0  0  0  0  0  0  0  0  0
    5.4347    1.2381    0.2075 Cl  0  0  0  0  0  0  0  0  0  0  0  0
    2.8145    1.5754   -0.2031 C   0  0  0  0  0  0  0  0  0  0  0  0
    1.4989    1.2255   -0.2710 C   0  0  0  0  0  0  0  0  0  0  0  0
  1  2  1  0
  2  3  1  0
  4  3  1  1
  4  5  1  0
  5  6  2  0
  6  7  1  0
  6  8  1  0
  8  9  2  0
  9 10  1  0
  9 11  1  0
 11 12  1  0
 12 13  2  0
 13 14  1  0
 14 15  2  0
 15 16  1  0
 15 17  1  0
 17 18  2  0
 11  4  1  0
 18 12  1  0
M  END
>  <zinc_id>  (1015) 
ZINC000013809206

>  <ortholog_name>  (1015) 
DRTS_PLAFK

>  <gene_name>  (1015) 
DRTS_PLAFK

>  <affinity>  (1015) 
8.34

>  <chembldocid>  (1015) 
15522

>  <title>  (1015) 
None

>  <reference.pubmed_id>  (1015) 
10893311

>  <reference.doi>  (1015) 
None

>  <reference.chembl_id>  (1015) 
CHEMBL1133696

>  <reference.journal>  (1015) 
J. Med. Chem.

>  <reference.year>  (1015) 
2000

$$$$

     RDKit          3D

 18 19  0  0  0  0  0  0  0  0999 V2000
   -3.8225   -0.1533   -2.4730 C   0  0  0  0  0  0  0  0  0  0  0  0
   -2.9367    0.7513   -1.6636 C   0  0  0  0  0  0  0  0  0  0  0  0
   -1.7398    0.0072   -1.0957 C   0  0  0  0  0  0  0  0  0  0  0  0
   -0.9322    1.1927   -0.2612 C   0  0  1  0  0  0  0  0  0  0  0  0
   -2.0642    1.5346    0.7017 N   0  0  0  0  0  0  0  0  0  0  0  0
   -2.2387    1.1669    1.8550 C   0  0  0  0  0  0  0  0  0  0  0  0
   -3.4379    1.6890    2.4932 N   0  0  0  0  0  0  0  0  0  0  0  0
   -1.3669    0.2958    2.5664 N   0  0  0  0  0  0  0  0  0  0  0  0
   -0.3358   -0.1047    1.9021 C   0  0  0  0  0  0  0  0  0  0  0  0
    0.6422   -0.9987    2.5011 N   0  0  0  0  0  0  0  0  0  0  0  0
   -0.0737    0.2649    0.6063 N   0  0  0  0  0  0  0  0  0  0  0  0
    1.0908   -0.2052   -0.1014 C   0  0  0  0  0  0  0  0  0  0  0  0
    2.2856    0.4764   -0.0751 C   0  0  0  0  0  0  0  0  0  0  0  0
    3.4075    0.0408   -0.7459 C   0  0  0  0  0  0  0  0  0  0  0  0
    3.3994   -1.1190   -1.4929 C   0  0  0  0  0  0  0  0  0  0  0  0
    4.8265   -1.6744   -2.3470 Cl  0  0  0  0  0  0  0  0  0  0  0  0
    2.2049   -1.8075   -1.5238 C   0  0  0  0  0  0  0  0  0  0  0  0
    1.0916   -1.3568   -0.8463 C   0  0  0  0  0  0  0  0  0  0  0  0
  1  2  1  0
  2  3  1  0
  4  3  1  6
  4  5  1  0
  5  6  2  0
  6  7  1  0
  6  8  1  0
  8  9  2  0
  9 10  1  0
  9 11  1  0
 11 12  1  0
 12 13  2  0
 13 14  1  0
 14 15  2  0
 15 16  1  0
 15 17  1  0
 17 18  2  0
 11  4  1  0
 18 12  1  0
M  END
>  <zinc_id>  (1016) 
ZINC000013809208

>  <ortholog_name>  (1016) 
DRTS_PLAFK

>  <gene_name>  (1016) 
DRTS_PLAFK

>  <affinity>  (1016) 
6.97

>  <chembldocid>  (1016) 
15522

>  <title>  (1016) 
None

>  <reference.pubmed_id>  (1016) 
10893311

>  <reference.doi>  (1016) 
None

>  <reference.chembl_id>  (1016) 
CHEMBL1133696

>  <reference.journal>  (1016) 
J. Med. Chem.

>  <reference.year>  (1016) 
2000

$$$$

     RDKit          3D

 18 19  0  0  0  0  0  0  0  0999 V2000
   -3.8225   -0.1533   -2.4730 C   0  0  0  0  0  0  0  0  0  0  0  0
   -2.9367    0.7513   -1.6636 C   0  0  0  0  0  0  0  0  0  0  0  0
   -1.7398    0.0072   -1.0957 C   0  0  0  0  0  0  0  0  0  0  0  0
   -0.9322    1.1927   -0.2612 C   0  0  1  0  0  0  0  0  0  0  0  0
   -2.0642    1.5346    0.7017 N   0  0  0  0  0  0  0  0  0  0  0  0
   -2.2387    1.1669    1.8550 C   0  0  0  0  0  0  0  0  0  0  0  0
   -3.4379    1.6890    2.4932 N   0  0  0  0  0  0  0  0  0  0  0  0
   -1.3669    0.2958    2.5664 N   0  0  0  0  0  0  0  0  0  0  0  0
   -0.3358   -0.1047    1.9021 C   0  0  0  0  0  0  0  0  0  0  0  0
    0.6422   -0.9987    2.5011 N   0  0  0  0  0  0  0  0  0  0  0  0
   -0.0737    0.2649    0.6063 N   0  0  0  0  0  0  0  0  0  0  0  0
    1.0908   -0.2052   -0.1014 C   0  0  0  0  0  0  0  0  0  0  0  0
    2.2856    0.4764   -0.0751 C   0  0  0  0  0  0  0  0  0  0  0  0
    3.4075    0.0408   -0.7459 C   0  0  0  0  0  0  0  0  0  0  0  0
    3.3994   -1.1190   -1.4929 C   0  0  0  0  0  0  0  0  0  0  0  0
    4.8265   -1.6744   -2.3470 Cl  0  0  0  0  0  0  0  0  0  0  0  0
    2.2049   -1.8075   -1.5238 C   0  0  0  0  0  0  0  0  0  0  0  0
    1.0916   -1.3568   -0.8463 C   0  0  0  0  0  0  0  0  0  0  0  0
  1  2  1  0
  2  3  1  0
  4  3  1  6
  4  5  1  0
  5  6  2  0
  6  7  1  0
  6  8  1  0
  8  9  2  0
  9 10  1  0
  9 11  1  0
 11 12  1  0
 12 13  2  0
 13 14  1  0
 14 15  2  0
 15 16  1  0
 15 17  1  0
 17 18  2  0
 11  4  1  0
 18 12  1  0
M  END
>  <zinc_id>  (1017) 
ZINC000013809208

>  <ortholog_name>  (1017) 
DRTS_PLAFK

>  <gene_name>  (1017) 
DRTS_PLAFK

>  <affinity>  (1017) 
8.34

>  <chembldocid>  (1017) 
15522

>  <title>  (1017) 
None

>  <reference.pubmed_id>  (1017) 
10893311

>  <reference.doi>  (1017) 
None

>  <reference.chembl_id>  (1017) 
CHEMBL1133696

>  <reference.journal>  (1017) 
J. Med. Chem.

>  <reference.year>  (1017) 
2000

$$$$

     RDKit          3D

 19 20  0  0  0  0  0  0  0  0999 V2000
   -4.3994    2.8384    0.7389 C   0  0  0  0  0  0  0  0  0  0  0  0
   -2.9674    2.3694    0.5922 C   0  0  0  0  0  0  0  0  0  0  0  0
   -2.7523    1.2103    1.5692 C   0  0  0  0  0  0  0  0  0  0  0  0
   -1.3416    0.6880    1.4800 C   0  0  0  0  0  0  0  0  0  0  0  0
   -1.2438    0.2016   -0.1177 C   0  0  2  0  0  0  0  0  0  0  0  0
   -2.3401   -0.7995   -0.0694 N   0  0  0  0  0  0  0  0  0  0  0  0
   -2.2555   -2.0408    0.0516 C   0  0  0  0  0  0  0  0  0  0  0  0
   -3.4992   -2.7706    0.0679 N   0  0  0  0  0  0  0  0  0  0  0  0
   -1.0138   -2.7225    0.1688 N   0  0  0  0  0  0  0  0  0  0  0  0
    0.0482   -2.0145    0.1469 C   0  0  0  0  0  0  0  0  0  0  0  0
    1.3436   -2.6523    0.2622 N   0  0  0  0  0  0  0  0  0  0  0  0
    0.0423   -0.6419    0.0169 N   0  0  0  0  0  0  0  0  0  0  0  0
    1.2650    0.1035   -0.0014 C   0  0  0  0  0  0  0  0  0  0  0  0
    1.3485    1.4504   -0.1253 C   0  0  0  0  0  0  0  0  0  0  0  0
    2.5934    2.0843   -0.1320 C   0  0  0  0  0  0  0  0  0  0  0  0
    3.7565    1.3204   -0.0101 C   0  0  0  0  0  0  0  0  0  0  0  0
    5.3383    2.0442   -0.0109 Cl  0  0  0  0  0  0  0  0  0  0  0  0
    3.6650   -0.0517    0.1158 C   0  0  0  0  0  0  0  0  0  0  0  0
    2.4124   -0.6166    0.1157 C   0  0  0  0  0  0  0  0  0  0  0  0
  1  2  1  0
  2  3  1  0
  3  4  1  0
  5  4  1  1
  5  6  1  0
  6  7  2  0
  7  8  1  0
  7  9  1  0
  9 10  2  0
 10 11  1  0
 10 12  1  0
 12 13  1  0
 13 14  2  0
 14 15  1  0
 15 16  2  0
 16 17  1  0
 16 18  1  0
 18 19  2  0
 12  5  1  0
 19 13  1  0
M  END
>  <zinc_id>  (1018) 
ZINC000013809210

>  <ortholog_name>  (1018) 
DRTS_PLAFK

>  <gene_name>  (1018) 
DRTS_PLAFK

>  <affinity>  (1018) 
6.78

>  <chembldocid>  (1018) 
15522

>  <title>  (1018) 
None

>  <reference.pubmed_id>  (1018) 
10893311

>  <reference.doi>  (1018) 
None

>  <reference.chembl_id>  (1018) 
CHEMBL1133696

>  <reference.journal>  (1018) 
J. Med. Chem.

>  <reference.year>  (1018) 
2000

$$$$

     RDKit          3D

 19 20  0  0  0  0  0  0  0  0999 V2000
   -4.3994    2.8384    0.7389 C   0  0  0  0  0  0  0  0  0  0  0  0
   -2.9674    2.3694    0.5922 C   0  0  0  0  0  0  0  0  0  0  0  0
   -2.7523    1.2103    1.5692 C   0  0  0  0  0  0  0  0  0  0  0  0
   -1.3416    0.6880    1.4800 C   0  0  0  0  0  0  0  0  0  0  0  0
   -1.2438    0.2016   -0.1177 C   0  0  2  0  0  0  0  0  0  0  0  0
   -2.3401   -0.7995   -0.0694 N   0  0  0  0  0  0  0  0  0  0  0  0
   -2.2555   -2.0408    0.0516 C   0  0  0  0  0  0  0  0  0  0  0  0
   -3.4992   -2.7706    0.0679 N   0  0  0  0  0  0  0  0  0  0  0  0
   -1.0138   -2.7225    0.1688 N   0  0  0  0  0  0  0  0  0  0  0  0
    0.0482   -2.0145    0.1469 C   0  0  0  0  0  0  0  0  0  0  0  0
    1.3436   -2.6523    0.2622 N   0  0  0  0  0  0  0  0  0  0  0  0
    0.0423   -0.6419    0.0169 N   0  0  0  0  0  0  0  0  0  0  0  0
    1.2650    0.1035   -0.0014 C   0  0  0  0  0  0  0  0  0  0  0  0
    1.3485    1.4504   -0.1253 C   0  0  0  0  0  0  0  0  0  0  0  0
    2.5934    2.0843   -0.1320 C   0  0  0  0  0  0  0  0  0  0  0  0
    3.7565    1.3204   -0.0101 C   0  0  0  0  0  0  0  0  0  0  0  0
    5.3383    2.0442   -0.0109 Cl  0  0  0  0  0  0  0  0  0  0  0  0
    3.6650   -0.0517    0.1158 C   0  0  0  0  0  0  0  0  0  0  0  0
    2.4124   -0.6166    0.1157 C   0  0  0  0  0  0  0  0  0  0  0  0
  1  2  1  0
  2  3  1  0
  3  4  1  0
  5  4  1  1
  5  6  1  0
  6  7  2  0
  7  8  1  0
  7  9  1  0
  9 10  2  0
 10 11  1  0
 10 12  1  0
 12 13  1  0
 13 14  2  0
 14 15  1  0
 15 16  2  0
 16 17  1  0
 16 18  1  0
 18 19  2  0
 12  5  1  0
 19 13  1  0
M  END
>  <zinc_id>  (1019) 
ZINC000013809210

>  <ortholog_name>  (1019) 
DRTS_PLAFK

>  <gene_name>  (1019) 
DRTS_PLAFK

>  <affinity>  (1019) 
8.43

>  <chembldocid>  (1019) 
15522

>  <title>  (1019) 
None

>  <reference.pubmed_id>  (1019) 
10893311

>  <reference.doi>  (1019) 
None

>  <reference.chembl_id>  (1019) 
CHEMBL1133696

>  <reference.journal>  (1019) 
J. Med. Chem.

>  <reference.year>  (1019) 
2000

$$$$

     RDKit          3D

 19 20  0  0  0  0  0  0  0  0999 V2000
   -4.0247    3.2645   -0.1228 C   0  0  0  0  0  0  0  0  0  0  0  0
   -2.7057    2.5733   -0.1539 C   0  0  0  0  0  0  0  0  0  0  0  0
   -2.6228    1.5012   -1.2182 C   0  0  0  0  0  0  0  0  0  0  0  0
   -1.2676    0.8234   -1.2168 C   0  0  0  0  0  0  0  0  0  0  0  0
   -1.2400    0.2139    0.3200 C   0  0  1  0  0  0  0  0  0  0  0  0
   -2.4323   -0.6427    0.2080 N   0  0  0  0  0  0  0  0  0  0  0  0
   -2.4505   -1.8930    0.0226 C   0  0  0  0  0  0  0  0  0  0  0  0
   -3.6701   -2.6204   -0.0698 N   0  0  0  0  0  0  0  0  0  0  0  0
   -1.2291   -2.6186   -0.1009 N   0  0  0  0  0  0  0  0  0  0  0  0
   -0.1101   -1.9955   -0.0229 C   0  0  0  0  0  0  0  0  0  0  0  0
    1.1167   -2.8038   -0.1587 N   0  0  0  0  0  0  0  0  0  0  0  0
   -0.0354   -0.6407    0.1770 N   0  0  0  0  0  0  0  0  0  0  0  0
    1.2414    0.0064    0.2555 C   0  0  0  0  0  0  0  0  0  0  0  0
    1.4450    1.3338    0.4495 C   0  0  0  0  0  0  0  0  0  0  0  0
    2.7259    1.8430    0.5075 C   0  0  0  0  0  0  0  0  0  0  0  0
    3.8298    1.0476    0.3746 C   0  0  0  0  0  0  0  0  0  0  0  0
    5.4718    1.7136    0.4510 Cl  0  0  0  0  0  0  0  0  0  0  0  0
    3.6327   -0.3032    0.1771 C   0  0  0  0  0  0  0  0  0  0  0  0
    2.3250   -0.8026    0.1209 C   0  0  0  0  0  0  0  0  0  0  0  0
  1  2  1  0
  2  3  1  0
  3  4  1  0
  5  4  1  6
  5  6  1  0
  6  7  2  0
  7  8  1  0
  7  9  1  0
  9 10  2  0
 10 11  1  0
 10 12  1  0
 12 13  1  0
 13 14  2  0
 14 15  1  0
 15 16  2  0
 16 17  1  0
 16 18  1  0
 18 19  2  0
 12  5  1  0
 19 13  1  0
M  END
>  <zinc_id>  (1020) 
ZINC000013809212

>  <ortholog_name>  (1020) 
DRTS_PLAFK

>  <gene_name>  (1020) 
DRTS_PLAFK

>  <affinity>  (1020) 
6.78

>  <chembldocid>  (1020) 
15522

>  <title>  (1020) 
None

>  <reference.pubmed_id>  (1020) 
10893311

>  <reference.doi>  (1020) 
None

>  <reference.chembl_id>  (1020) 
CHEMBL1133696

>  <reference.journal>  (1020) 
J. Med. Chem.

>  <reference.year>  (1020) 
2000

$$$$

     RDKit          3D

 19 20  0  0  0  0  0  0  0  0999 V2000
   -4.0247    3.2645   -0.1228 C   0  0  0  0  0  0  0  0  0  0  0  0
   -2.7057    2.5733   -0.1539 C   0  0  0  0  0  0  0  0  0  0  0  0
   -2.6228    1.5012   -1.2182 C   0  0  0  0  0  0  0  0  0  0  0  0
   -1.2676    0.8234   -1.2168 C   0  0  0  0  0  0  0  0  0  0  0  0
   -1.2400    0.2139    0.3200 C   0  0  1  0  0  0  0  0  0  0  0  0
   -2.4323   -0.6427    0.2080 N   0  0  0  0  0  0  0  0  0  0  0  0
   -2.4505   -1.8930    0.0226 C   0  0  0  0  0  0  0  0  0  0  0  0
   -3.6701   -2.6204   -0.0698 N   0  0  0  0  0  0  0  0  0  0  0  0
   -1.2291   -2.6186   -0.1009 N   0  0  0  0  0  0  0  0  0  0  0  0
   -0.1101   -1.9955   -0.0229 C   0  0  0  0  0  0  0  0  0  0  0  0
    1.1167   -2.8038   -0.1587 N   0  0  0  0  0  0  0  0  0  0  0  0
   -0.0354   -0.6407    0.1770 N   0  0  0  0  0  0  0  0  0  0  0  0
    1.2414    0.0064    0.2555 C   0  0  0  0  0  0  0  0  0  0  0  0
    1.4450    1.3338    0.4495 C   0  0  0  0  0  0  0  0  0  0  0  0
    2.7259    1.8430    0.5075 C   0  0  0  0  0  0  0  0  0  0  0  0
    3.8298    1.0476    0.3746 C   0  0  0  0  0  0  0  0  0  0  0  0
    5.4718    1.7136    0.4510 Cl  0  0  0  0  0  0  0  0  0  0  0  0
    3.6327   -0.3032    0.1771 C   0  0  0  0  0  0  0  0  0  0  0  0
    2.3250   -0.8026    0.1209 C   0  0  0  0  0  0  0  0  0  0  0  0
  1  2  1  0
  2  3  1  0
  3  4  1  0
  5  4  1  6
  5  6  1  0
  6  7  2  0
  7  8  1  0
  7  9  1  0
  9 10  2  0
 10 11  1  0
 10 12  1  0
 12 13  1  0
 13 14  2  0
 14 15  1  0
 15 16  2  0
 16 17  1  0
 16 18  1  0
 18 19  2  0
 12  5  1  0
 19 13  1  0
M  END
>  <zinc_id>  (1021) 
ZINC000013809212

>  <ortholog_name>  (1021) 
DRTS_PLAFK

>  <gene_name>  (1021) 
DRTS_PLAFK

>  <affinity>  (1021) 
8.43

>  <chembldocid>  (1021) 
15522

>  <title>  (1021) 
None

>  <reference.pubmed_id>  (1021) 
10893311

>  <reference.doi>  (1021) 
None

>  <reference.chembl_id>  (1021) 
CHEMBL1133696

>  <reference.journal>  (1021) 
J. Med. Chem.

>  <reference.year>  (1021) 
2000

$$$$

     RDKit          3D

 19 20  0  0  0  0  0  0  0  0999 V2000
   -3.0569   -1.9261    0.5169 C   0  0  0  0  0  0  0  0  0  0  0  0
   -1.7389   -1.4289   -0.0865 C   0  0  0  0  0  0  0  0  0  0  0  0
   -0.7632   -2.5154    0.2131 C   0  0  0  0  0  0  0  0  0  0  0  0
   -1.8181   -0.9265   -1.4280 C   0  0  0  0  0  0  0  0  0  0  0  0
   -1.3231   -0.1525    0.9440 C   0  0  2  0  0  0  0  0  0  0  0  0
   -2.5625    0.6457    0.6773 N   0  0  0  0  0  0  0  0  0  0  0  0
   -2.7433    1.5744   -0.0999 C   0  0  0  0  0  0  0  0  0  0  0  0
   -4.0368    2.2345   -0.2257 N   0  0  0  0  0  0  0  0  0  0  0  0
   -1.7026    2.0902   -0.9069 N   0  0  0  0  0  0  0  0  0  0  0  0
   -0.5187    1.5498   -0.8027 C   0  0  0  0  0  0  0  0  0  0  0  0
    0.4801    2.1145   -1.6453 N   0  0  0  0  0  0  0  0  0  0  0  0
   -0.2473    0.5115    0.0927 N   0  0  0  0  0  0  0  0  0  0  0  0
    1.0852    0.0461    0.2322 C   0  0  0  0  0  0  0  0  0  0  0  0
    2.1112    0.5893   -0.5142 C   0  0  0  0  0  0  0  0  0  0  0  0
    3.4208    0.1650   -0.4021 C   0  0  0  0  0  0  0  0  0  0  0  0
    3.7526   -0.8406    0.4818 C   0  0  0  0  0  0  0  0  0  0  0  0
    5.4326   -1.3817    0.6225 Cl  0  0  0  0  0  0  0  0  0  0  0  0
    2.7551   -1.3985    1.2358 C   0  0  0  0  0  0  0  0  0  0  0  0
    1.4738   -0.9506    1.0949 C   0  0  0  0  0  0  0  0  0  0  0  0
  1  2  1  0
  2  3  1  0
  2  4  1  0
  5  2  1  6
  5  6  1  0
  6  7  2  0
  7  8  1  0
  7  9  1  0
  9 10  2  0
 10 11  1  0
 10 12  1  0
 12 13  1  0
 13 14  2  0
 14 15  1  0
 15 16  2  0
 16 17  1  0
 16 18  1  0
 18 19  2  0
 12  5  1  0
 19 13  1  0
M  END
>  <zinc_id>  (1022) 
ZINC000013809214

>  <ortholog_name>  (1022) 
DRTS_PLAFK

>  <gene_name>  (1022) 
DRTS_PLAFK

>  <affinity>  (1022) 
5.42

>  <chembldocid>  (1022) 
15522

>  <title>  (1022) 
None

>  <reference.pubmed_id>  (1022) 
10893311

>  <reference.doi>  (1022) 
None

>  <reference.chembl_id>  (1022) 
CHEMBL1133696

>  <reference.journal>  (1022) 
J. Med. Chem.

>  <reference.year>  (1022) 
2000

$$$$

     RDKit          3D

 19 20  0  0  0  0  0  0  0  0999 V2000
   -3.2271    1.5236   -0.3885 C   0  0  0  0  0  0  0  0  0  0  0  0
   -1.8185    1.0182   -0.7460 C   0  0  0  0  0  0  0  0  0  0  0  0
   -1.7546    0.0185   -1.7786 C   0  0  0  0  0  0  0  0  0  0  0  0
   -0.9806    2.2427   -0.9233 C   0  0  0  0  0  0  0  0  0  0  0  0
   -1.4066    0.3679    0.7200 C   0  0  1  0  0  0  0  0  0  0  0  0
   -2.5188   -0.6381    0.8242 N   0  0  0  0  0  0  0  0  0  0  0  0
   -2.4979   -1.8487    0.5982 C   0  0  0  0  0  0  0  0  0  0  0  0
   -3.6632   -2.6399    0.7538 N   0  0  0  0  0  0  0  0  0  0  0  0
   -1.3209   -2.4986    0.1905 N   0  0  0  0  0  0  0  0  0  0  0  0
   -0.2625   -1.7645    0.0666 C   0  0  0  0  0  0  0  0  0  0  0  0
    0.9073   -2.5384   -0.3639 N   0  0  0  0  0  0  0  0  0  0  0  0
   -0.2017   -0.4096    0.3146 N   0  0  0  0  0  0  0  0  0  0  0  0
    1.0652    0.2130    0.1785 C   0  0  0  0  0  0  0  0  0  0  0  0
    1.4131    0.6837   -1.0430 C   0  0  0  0  0  0  0  0  0  0  0  0
    2.6306    1.2921   -1.2131 C   0  0  0  0  0  0  0  0  0  0  0  0
    3.5164    1.4399   -0.1720 C   0  0  0  0  0  0  0  0  0  0  0  0
    5.0314    2.2298   -0.5132 Cl  0  0  0  0  0  0  0  0  0  0  0  0
    3.1536    0.9615    1.0528 C   0  0  0  0  0  0  0  0  0  0  0  0
    1.9348    0.3471    1.2443 C   0  0  0  0  0  0  0  0  0  0  0  0
  1  2  1  0
  2  3  1  0
  2  4  1  0
  5  2  1  6
  5  6  1  0
  6  7  2  0
  7  8  1  0
  7  9  1  0
  9 10  2  0
 10 11  1  0
 10 12  1  0
 12 13  1  0
 13 14  2  0
 14 15  1  0
 15 16  2  0
 16 17  1  0
 16 18  1  0
 18 19  2  0
 12  5  1  0
 19 13  1  0
M  END
>  <zinc_id>  (1023) 
ZINC000013809216

>  <ortholog_name>  (1023) 
DRTS_PLAFK

>  <gene_name>  (1023) 
DRTS_PLAFK

>  <affinity>  (1023) 
5.42

>  <chembldocid>  (1023) 
15522

>  <title>  (1023) 
None

>  <reference.pubmed_id>  (1023) 
10893311

>  <reference.doi>  (1023) 
None

>  <reference.chembl_id>  (1023) 
CHEMBL1133696

>  <reference.journal>  (1023) 
J. Med. Chem.

>  <reference.year>  (1023) 
2000

$$$$

     RDKit          3D

 17 18  0  0  0  0  0  0  0  0999 V2000
   -3.0268   -2.1158    0.0005 C   0  0  0  0  0  0  0  0  0  0  0  0
   -1.7084   -1.5407   -0.5020 C   0  0  0  0  0  0  0  0  0  0  0  0
   -1.4547   -0.4066    0.7291 C   0  0  2  0  0  0  0  0  0  0  0  0
   -2.7362    0.4077    0.5031 N   0  0  0  0  0  0  0  0  0  0  0  0
   -2.9191    1.4157   -0.1314 C   0  0  0  0  0  0  0  0  0  0  0  0
   -4.2346    1.9924   -0.1884 N   0  0  0  0  0  0  0  0  0  0  0  0
   -1.8810    2.0622   -0.8303 N   0  0  0  0  0  0  0  0  0  0  0  0
   -0.7247    1.5569   -0.7813 C   0  0  0  0  0  0  0  0  0  0  0  0
    0.3761    2.1856   -1.4841 N   0  0  0  0  0  0  0  0  0  0  0  0
   -0.4172    0.4180   -0.0900 N   0  0  0  0  0  0  0  0  0  0  0  0
    0.9218   -0.1391   -0.0521 C   0  0  0  0  0  0  0  0  0  0  0  0
    1.8229    0.2298    0.9198 C   0  0  0  0  0  0  0  0  0  0  0  0
    3.1107   -0.2895    0.9775 C   0  0  0  0  0  0  0  0  0  0  0  0
    3.5398   -1.2091    0.0467 C   0  0  0  0  0  0  0  0  0  0  0  0
    5.3180   -1.9218    0.1317 Br  0  0  0  0  0  0  0  0  0  0  0  0
    2.6461   -1.5863   -0.9317 C   0  0  0  0  0  0  0  0  0  0  0  0
    1.3672   -1.0596   -0.9748 C   0  0  0  0  0  0  0  0  0  0  0  0
  1  2  1  0
  3  2  1  6
  3  4  1  0
  4  5  2  0
  5  6  1  0
  5  7  1  0
  7  8  2  0
  8  9  1  0
  8 10  1  0
 10 11  1  0
 11 12  2  0
 12 13  1  0
 13 14  2  0
 14 15  1  0
 14 16  1  0
 16 17  2  0
 10  3  1  0
 17 11  1  0
M  END
>  <zinc_id>  (1024) 
ZINC000013809218

>  <ortholog_name>  (1024) 
DRTS_PLAFK

>  <gene_name>  (1024) 
DRTS_PLAFK

>  <affinity>  (1024) 
6.69

>  <chembldocid>  (1024) 
15522

>  <title>  (1024) 
None

>  <reference.pubmed_id>  (1024) 
10893311

>  <reference.doi>  (1024) 
None

>  <reference.chembl_id>  (1024) 
CHEMBL1133696

>  <reference.journal>  (1024) 
J. Med. Chem.

>  <reference.year>  (1024) 
2000

$$$$

     RDKit          3D

 17 18  0  0  0  0  0  0  0  0999 V2000
   -3.0268   -2.1158    0.0005 C   0  0  0  0  0  0  0  0  0  0  0  0
   -1.7084   -1.5407   -0.5020 C   0  0  0  0  0  0  0  0  0  0  0  0
   -1.4547   -0.4066    0.7291 C   0  0  2  0  0  0  0  0  0  0  0  0
   -2.7362    0.4077    0.5031 N   0  0  0  0  0  0  0  0  0  0  0  0
   -2.9191    1.4157   -0.1314 C   0  0  0  0  0  0  0  0  0  0  0  0
   -4.2346    1.9924   -0.1884 N   0  0  0  0  0  0  0  0  0  0  0  0
   -1.8810    2.0622   -0.8303 N   0  0  0  0  0  0  0  0  0  0  0  0
   -0.7247    1.5569   -0.7813 C   0  0  0  0  0  0  0  0  0  0  0  0
    0.3761    2.1856   -1.4841 N   0  0  0  0  0  0  0  0  0  0  0  0
   -0.4172    0.4180   -0.0900 N   0  0  0  0  0  0  0  0  0  0  0  0
    0.9218   -0.1391   -0.0521 C   0  0  0  0  0  0  0  0  0  0  0  0
    1.8229    0.2298    0.9198 C   0  0  0  0  0  0  0  0  0  0  0  0
    3.1107   -0.2895    0.9775 C   0  0  0  0  0  0  0  0  0  0  0  0
    3.5398   -1.2091    0.0467 C   0  0  0  0  0  0  0  0  0  0  0  0
    5.3180   -1.9218    0.1317 Br  0  0  0  0  0  0  0  0  0  0  0  0
    2.6461   -1.5863   -0.9317 C   0  0  0  0  0  0  0  0  0  0  0  0
    1.3672   -1.0596   -0.9748 C   0  0  0  0  0  0  0  0  0  0  0  0
  1  2  1  0
  3  2  1  6
  3  4  1  0
  4  5  2  0
  5  6  1  0
  5  7  1  0
  7  8  2  0
  8  9  1  0
  8 10  1  0
 10 11  1  0
 11 12  2  0
 12 13  1  0
 13 14  2  0
 14 15  1  0
 14 16  1  0
 16 17  2  0
 10  3  1  0
 17 11  1  0
M  END
>  <zinc_id>  (1025) 
ZINC000013809218

>  <ortholog_name>  (1025) 
DRTS_PLAFK

>  <gene_name>  (1025) 
DRTS_PLAFK

>  <affinity>  (1025) 
8.24

>  <chembldocid>  (1025) 
15522

>  <title>  (1025) 
None

>  <reference.pubmed_id>  (1025) 
10893311

>  <reference.doi>  (1025) 
None

>  <reference.chembl_id>  (1025) 
CHEMBL1133696

>  <reference.journal>  (1025) 
J. Med. Chem.

>  <reference.year>  (1025) 
2000

$$$$

     RDKit          3D

 17 18  0  0  0  0  0  0  0  0999 V2000
   -2.1684    2.9456   -0.5700 C   0  0  0  0  0  0  0  0  0  0  0  0
   -0.9987    1.9791   -0.6348 C   0  0  0  0  0  0  0  0  0  0  0  0
   -1.5486    0.7503    0.3773 C   0  0  1  0  0  0  0  0  0  0  0  0
   -2.7688    0.4316   -0.4252 N   0  0  0  0  0  0  0  0  0  0  0  0
   -2.9017   -0.4779   -1.2649 C   0  0  0  0  0  0  0  0  0  0  0  0
   -4.1292   -0.6650   -1.9575 N   0  0  0  0  0  0  0  0  0  0  0  0
   -1.8558   -1.4038   -1.6078 N   0  0  0  0  0  0  0  0  0  0  0  0
   -0.7391   -1.2735   -1.0118 C   0  0  0  0  0  0  0  0  0  0  0  0
    0.3589   -2.1658   -1.3033 N   0  0  0  0  0  0  0  0  0  0  0  0
   -0.5246   -0.2830   -0.0671 N   0  0  0  0  0  0  0  0  0  0  0  0
    0.7674   -0.1801    0.5815 C   0  0  0  0  0  0  0  0  0  0  0  0
    1.0977   -0.8226    1.7341 C   0  0  0  0  0  0  0  0  0  0  0  0
    2.3586   -0.6666    2.2851 C   0  0  0  0  0  0  0  0  0  0  0  0
    3.3234    0.1308    1.7064 C   0  0  0  0  0  0  0  0  0  0  0  0
    5.0383    0.2994    2.5202 Br  0  0  0  0  0  0  0  0  0  0  0  0
    2.9852    0.7804    0.5386 C   0  0  0  0  0  0  0  0  0  0  0  0
    1.7055    0.6209   -0.0190 C   0  0  0  0  0  0  0  0  0  0  0  0
  1  2  1  0
  3  2  1  6
  3  4  1  0
  4  5  2  0
  5  6  1  0
  5  7  1  0
  7  8  2  0
  8  9  1  0
  8 10  1  0
 10 11  1  0
 11 12  2  0
 12 13  1  0
 13 14  2  0
 14 15  1  0
 14 16  1  0
 16 17  2  0
 10  3  1  0
 17 11  1  0
M  END
>  <zinc_id>  (1026) 
ZINC000013809220

>  <ortholog_name>  (1026) 
DRTS_PLAFK

>  <gene_name>  (1026) 
DRTS_PLAFK

>  <affinity>  (1026) 
6.69

>  <chembldocid>  (1026) 
15522

>  <title>  (1026) 
None

>  <reference.pubmed_id>  (1026) 
10893311

>  <reference.doi>  (1026) 
None

>  <reference.chembl_id>  (1026) 
CHEMBL1133696

>  <reference.journal>  (1026) 
J. Med. Chem.

>  <reference.year>  (1026) 
2000

$$$$

     RDKit          3D

 17 18  0  0  0  0  0  0  0  0999 V2000
   -2.1684    2.9456   -0.5700 C   0  0  0  0  0  0  0  0  0  0  0  0
   -0.9987    1.9791   -0.6348 C   0  0  0  0  0  0  0  0  0  0  0  0
   -1.5486    0.7503    0.3773 C   0  0  1  0  0  0  0  0  0  0  0  0
   -2.7688    0.4316   -0.4252 N   0  0  0  0  0  0  0  0  0  0  0  0
   -2.9017   -0.4779   -1.2649 C   0  0  0  0  0  0  0  0  0  0  0  0
   -4.1292   -0.6650   -1.9575 N   0  0  0  0  0  0  0  0  0  0  0  0
   -1.8558   -1.4038   -1.6078 N   0  0  0  0  0  0  0  0  0  0  0  0
   -0.7391   -1.2735   -1.0118 C   0  0  0  0  0  0  0  0  0  0  0  0
    0.3589   -2.1658   -1.3033 N   0  0  0  0  0  0  0  0  0  0  0  0
   -0.5246   -0.2830   -0.0671 N   0  0  0  0  0  0  0  0  0  0  0  0
    0.7674   -0.1801    0.5815 C   0  0  0  0  0  0  0  0  0  0  0  0
    1.0977   -0.8226    1.7341 C   0  0  0  0  0  0  0  0  0  0  0  0
    2.3586   -0.6666    2.2851 C   0  0  0  0  0  0  0  0  0  0  0  0
    3.3234    0.1308    1.7064 C   0  0  0  0  0  0  0  0  0  0  0  0
    5.0383    0.2994    2.5202 Br  0  0  0  0  0  0  0  0  0  0  0  0
    2.9852    0.7804    0.5386 C   0  0  0  0  0  0  0  0  0  0  0  0
    1.7055    0.6209   -0.0190 C   0  0  0  0  0  0  0  0  0  0  0  0
  1  2  1  0
  3  2  1  6
  3  4  1  0
  4  5  2  0
  5  6  1  0
  5  7  1  0
  7  8  2  0
  8  9  1  0
  8 10  1  0
 10 11  1  0
 11 12  2  0
 12 13  1  0
 13 14  2  0
 14 15  1  0
 14 16  1  0
 16 17  2  0
 10  3  1  0
 17 11  1  0
M  END
>  <zinc_id>  (1027) 
ZINC000013809220

>  <ortholog_name>  (1027) 
DRTS_PLAFK

>  <gene_name>  (1027) 
DRTS_PLAFK

>  <affinity>  (1027) 
8.24

>  <chembldocid>  (1027) 
15522

>  <title>  (1027) 
None

>  <reference.pubmed_id>  (1027) 
10893311

>  <reference.doi>  (1027) 
None

>  <reference.chembl_id>  (1027) 
CHEMBL1133696

>  <reference.journal>  (1027) 
J. Med. Chem.

>  <reference.year>  (1027) 
2000

$$$$

     RDKit          3D

 18 19  0  0  0  0  0  0  0  0999 V2000
   -2.4978    2.9811   -0.4960 C   0  0  0  0  0  0  0  0  0  0  0  0
   -2.7695    1.9957    0.6110 C   0  0  0  0  0  0  0  0  0  0  0  0
   -1.4977    1.1985    0.8517 C   0  0  0  0  0  0  0  0  0  0  0  0
   -1.2618    0.4812   -0.6625 C   0  0  2  0  0  0  0  0  0  0  0  0
   -2.6219   -0.2679   -0.6313 N   0  0  0  0  0  0  0  0  0  0  0  0
   -2.8469   -1.3941   -0.2717 C   0  0  0  0  0  0  0  0  0  0  0  0
   -4.1581   -1.9425   -0.3031 N   0  0  0  0  0  0  0  0  0  0  0  0
   -1.8004   -2.1860    0.1883 N   0  0  0  0  0  0  0  0  0  0  0  0
   -0.6138   -1.8219    0.2635 C   0  0  0  0  0  0  0  0  0  0  0  0
    0.3964   -2.7237    0.7561 N   0  0  0  0  0  0  0  0  0  0  0  0
   -0.2550   -0.5600   -0.1212 N   0  0  0  0  0  0  0  0  0  0  0  0
    1.0610   -0.0606   -0.0717 C   0  0  0  0  0  0  0  0  0  0  0  0
    1.5874    0.5914    1.0347 C   0  0  0  0  0  0  0  0  0  0  0  0
    2.8787    1.0720    1.0605 C   0  0  0  0  0  0  0  0  0  0  0  0
    3.7297    0.9343   -0.0141 C   0  0  0  0  0  0  0  0  0  0  0  0
    5.5256    1.6043    0.0259 Br  0  0  0  0  0  0  0  0  0  0  0  0
    3.2183    0.2891   -1.1173 C   0  0  0  0  0  0  0  0  0  0  0  0
    1.9257   -0.1909   -1.1408 C   0  0  0  0  0  0  0  0  0  0  0  0
  1  2  1  0
  2  3  1  0
  4  3  1  1
  4  5  1  0
  5  6  2  0
  6  7  1  0
  6  8  1  0
  8  9  2  0
  9 10  1  0
  9 11  1  0
 11 12  1  0
 12 13  2  0
 13 14  1  0
 14 15  2  0
 15 16  1  0
 15 17  1  0
 17 18  2  0
 11  4  1  0
 18 12  1  0
M  END
>  <zinc_id>  (1028) 
ZINC000013809222

>  <ortholog_name>  (1028) 
DRTS_PLAFK

>  <gene_name>  (1028) 
DRTS_PLAFK

>  <affinity>  (1028) 
6.90

>  <chembldocid>  (1028) 
15522

>  <title>  (1028) 
None

>  <reference.pubmed_id>  (1028) 
10893311

>  <reference.doi>  (1028) 
None

>  <reference.chembl_id>  (1028) 
CHEMBL1133696

>  <reference.journal>  (1028) 
J. Med. Chem.

>  <reference.year>  (1028) 
2000

$$$$

     RDKit          3D

 18 19  0  0  0  0  0  0  0  0999 V2000
   -2.4978    2.9811   -0.4960 C   0  0  0  0  0  0  0  0  0  0  0  0
   -2.7695    1.9957    0.6110 C   0  0  0  0  0  0  0  0  0  0  0  0
   -1.4977    1.1985    0.8517 C   0  0  0  0  0  0  0  0  0  0  0  0
   -1.2618    0.4812   -0.6625 C   0  0  2  0  0  0  0  0  0  0  0  0
   -2.6219   -0.2679   -0.6313 N   0  0  0  0  0  0  0  0  0  0  0  0
   -2.8469   -1.3941   -0.2717 C   0  0  0  0  0  0  0  0  0  0  0  0
   -4.1581   -1.9425   -0.3031 N   0  0  0  0  0  0  0  0  0  0  0  0
   -1.8004   -2.1860    0.1883 N   0  0  0  0  0  0  0  0  0  0  0  0
   -0.6138   -1.8219    0.2635 C   0  0  0  0  0  0  0  0  0  0  0  0
    0.3964   -2.7237    0.7561 N   0  0  0  0  0  0  0  0  0  0  0  0
   -0.2550   -0.5600   -0.1212 N   0  0  0  0  0  0  0  0  0  0  0  0
    1.0610   -0.0606   -0.0717 C   0  0  0  0  0  0  0  0  0  0  0  0
    1.5874    0.5914    1.0347 C   0  0  0  0  0  0  0  0  0  0  0  0
    2.8787    1.0720    1.0605 C   0  0  0  0  0  0  0  0  0  0  0  0
    3.7297    0.9343   -0.0141 C   0  0  0  0  0  0  0  0  0  0  0  0
    5.5256    1.6043    0.0259 Br  0  0  0  0  0  0  0  0  0  0  0  0
    3.2183    0.2891   -1.1173 C   0  0  0  0  0  0  0  0  0  0  0  0
    1.9257   -0.1909   -1.1408 C   0  0  0  0  0  0  0  0  0  0  0  0
  1  2  1  0
  2  3  1  0
  4  3  1  1
  4  5  1  0
  5  6  2  0
  6  7  1  0
  6  8  1  0
  8  9  2  0
  9 10  1  0
  9 11  1  0
 11 12  1  0
 12 13  2  0
 13 14  1  0
 14 15  2  0
 15 16  1  0
 15 17  1  0
 17 18  2  0
 11  4  1  0
 18 12  1  0
M  END
>  <zinc_id>  (1029) 
ZINC000013809222

>  <ortholog_name>  (1029) 
DRTS_PLAFK

>  <gene_name>  (1029) 
DRTS_PLAFK

>  <affinity>  (1029) 
8.59

>  <chembldocid>  (1029) 
15522

>  <title>  (1029) 
None

>  <reference.pubmed_id>  (1029) 
10893311

>  <reference.doi>  (1029) 
None

>  <reference.chembl_id>  (1029) 
CHEMBL1133696

>  <reference.journal>  (1029) 
J. Med. Chem.

>  <reference.year>  (1029) 
2000

$$$$

     RDKit          3D

 18 19  0  0  0  0  0  0  0  0999 V2000
    4.0423    1.0532    0.0322 C   0  0  0  0  0  0  0  0  0  0  0  0
    2.8692    1.8571    0.3376 C   0  0  0  0  0  0  0  0  0  0  0  0
    1.5817    1.2509    0.6951 C   0  0  0  0  0  0  0  0  0  0  0  0
    1.2436    0.3589   -0.6565 C   0  0  1  0  0  0  0  0  0  0  0  0
    2.4751   -0.5018   -0.5620 N   0  0  0  0  0  0  0  0  0  0  0  0
    2.5617   -1.6381   -0.0951 C   0  0  0  0  0  0  0  0  0  0  0  0
    3.8152   -2.3090   -0.0866 N   0  0  0  0  0  0  0  0  0  0  0  0
    1.4264   -2.3276    0.4521 N   0  0  0  0  0  0  0  0  0  0  0  0
    0.2977   -1.7124    0.4398 C   0  0  0  0  0  0  0  0  0  0  0  0
   -0.8775   -2.3845    0.9884 N   0  0  0  0  0  0  0  0  0  0  0  0
    0.1301   -0.4552   -0.0608 N   0  0  0  0  0  0  0  0  0  0  0  0
   -1.1493    0.1700   -0.0441 C   0  0  0  0  0  0  0  0  0  0  0  0
   -1.4983    0.9127    1.0306 C   0  0  0  0  0  0  0  0  0  0  0  0
   -2.7548    1.5223    1.0391 C   0  0  0  0  0  0  0  0  0  0  0  0
   -3.6231    1.3730   -0.0222 C   0  0  0  0  0  0  0  0  0  0  0  0
   -5.3312    2.2263    0.0354 Br  0  0  0  0  0  0  0  0  0  0  0  0
   -3.2272    0.6149   -1.0834 C   0  0  0  0  0  0  0  0  0  0  0  0
   -1.9815   -0.0108   -1.1317 C   0  0  0  0  0  0  0  0  0  0  0  0
  1  2  1  0
  2  3  1  0
  4  3  1  1
  4  5  1  0
  5  6  2  0
  6  7  1  0
  6  8  1  0
  8  9  2  0
  9 10  1  0
  9 11  1  0
 11 12  1  0
 12 13  2  0
 13 14  1  0
 14 15  2  0
 15 16  1  0
 15 17  1  0
 17 18  2  0
 11  4  1  0
 18 12  1  0
M  END
>  <zinc_id>  (1030) 
ZINC000013809223

>  <ortholog_name>  (1030) 
DRTS_PLAFK

>  <gene_name>  (1030) 
DRTS_PLAFK

>  <affinity>  (1030) 
6.90

>  <chembldocid>  (1030) 
15522

>  <title>  (1030) 
None

>  <reference.pubmed_id>  (1030) 
10893311

>  <reference.doi>  (1030) 
None

>  <reference.chembl_id>  (1030) 
CHEMBL1133696

>  <reference.journal>  (1030) 
J. Med. Chem.

>  <reference.year>  (1030) 
2000

$$$$

     RDKit          3D

 18 19  0  0  0  0  0  0  0  0999 V2000
    4.0423    1.0532    0.0322 C   0  0  0  0  0  0  0  0  0  0  0  0
    2.8692    1.8571    0.3376 C   0  0  0  0  0  0  0  0  0  0  0  0
    1.5817    1.2509    0.6951 C   0  0  0  0  0  0  0  0  0  0  0  0
    1.2436    0.3589   -0.6565 C   0  0  1  0  0  0  0  0  0  0  0  0
    2.4751   -0.5018   -0.5620 N   0  0  0  0  0  0  0  0  0  0  0  0
    2.5617   -1.6381   -0.0951 C   0  0  0  0  0  0  0  0  0  0  0  0
    3.8152   -2.3090   -0.0866 N   0  0  0  0  0  0  0  0  0  0  0  0
    1.4264   -2.3276    0.4521 N   0  0  0  0  0  0  0  0  0  0  0  0
    0.2977   -1.7124    0.4398 C   0  0  0  0  0  0  0  0  0  0  0  0
   -0.8775   -2.3845    0.9884 N   0  0  0  0  0  0  0  0  0  0  0  0
    0.1301   -0.4552   -0.0608 N   0  0  0  0  0  0  0  0  0  0  0  0
   -1.1493    0.1700   -0.0441 C   0  0  0  0  0  0  0  0  0  0  0  0
   -1.4983    0.9127    1.0306 C   0  0  0  0  0  0  0  0  0  0  0  0
   -2.7548    1.5223    1.0391 C   0  0  0  0  0  0  0  0  0  0  0  0
   -3.6231    1.3730   -0.0222 C   0  0  0  0  0  0  0  0  0  0  0  0
   -5.3312    2.2263    0.0354 Br  0  0  0  0  0  0  0  0  0  0  0  0
   -3.2272    0.6149   -1.0834 C   0  0  0  0  0  0  0  0  0  0  0  0
   -1.9815   -0.0108   -1.1317 C   0  0  0  0  0  0  0  0  0  0  0  0
  1  2  1  0
  2  3  1  0
  4  3  1  1
  4  5  1  0
  5  6  2  0
  6  7  1  0
  6  8  1  0
  8  9  2  0
  9 10  1  0
  9 11  1  0
 11 12  1  0
 12 13  2  0
 13 14  1  0
 14 15  2  0
 15 16  1  0
 15 17  1  0
 17 18  2  0
 11  4  1  0
 18 12  1  0
M  END
>  <zinc_id>  (1031) 
ZINC000013809223

>  <ortholog_name>  (1031) 
DRTS_PLAFK

>  <gene_name>  (1031) 
DRTS_PLAFK

>  <affinity>  (1031) 
8.59

>  <chembldocid>  (1031) 
15522

>  <title>  (1031) 
None

>  <reference.pubmed_id>  (1031) 
10893311

>  <reference.doi>  (1031) 
None

>  <reference.chembl_id>  (1031) 
CHEMBL1133696

>  <reference.journal>  (1031) 
J. Med. Chem.

>  <reference.year>  (1031) 
2000

$$$$

     RDKit          3D

 18 19  0  0  0  0  0  0  0  0999 V2000
   -1.4099    1.7382    0.9102 C   0  0  0  0  0  0  0  0  0  0  0  0
   -1.1654    1.7692   -0.5159 C   0  0  0  0  0  0  0  0  0  0  0  0
   -2.0347    2.6167   -1.3586 C   0  0  0  0  0  0  0  0  0  0  0  0
   -1.2174    0.2548   -1.1396 C   0  0  2  0  0  0  0  0  0  0  0  0
   -2.6727   -0.0443   -0.7243 N   0  0  0  0  0  0  0  0  0  0  0  0
   -3.0964   -0.6149    0.2325 C   0  0  0  0  0  0  0  0  0  0  0  0
   -4.5318   -0.7563    0.3767 N   0  0  0  0  0  0  0  0  0  0  0  0
   -2.2580   -1.1389    1.1968 N   0  0  0  0  0  0  0  0  0  0  0  0
   -1.0072   -1.0213    1.0809 C   0  0  0  0  0  0  0  0  0  0  0  0
   -0.1023   -1.5662    2.0861 N   0  0  0  0  0  0  0  0  0  0  0  0
   -0.4441   -0.3961    0.0396 N   0  0  0  0  0  0  0  0  0  0  0  0
    0.9697   -0.2534   -0.1083 C   0  0  0  0  0  0  0  0  0  0  0  0
    1.5981    0.3745   -1.1497 C   0  0  0  0  0  0  0  0  0  0  0  0
    2.9714    0.4852   -1.2452 C   0  0  0  0  0  0  0  0  0  0  0  0
    3.7691   -0.0492   -0.2657 C   0  0  0  0  0  0  0  0  0  0  0  0
    5.6879    0.0737   -0.3439 Br  0  0  0  0  0  0  0  0  0  0  0  0
    3.1535   -0.6859    0.7919 C   0  0  0  0  0  0  0  0  0  0  0  0
    1.7901   -0.7859    0.8695 C   0  0  0  0  0  0  0  0  0  0  0  0
  1  2  1  0
  2  3  1  0
  4  2  1  1
  4  5  1  0
  5  6  2  0
  6  7  1  0
  6  8  1  0
  8  9  2  0
  9 10  1  0
  9 11  1  0
 11 12  1  0
 12 13  2  0
 13 14  1  0
 14 15  2  0
 15 16  1  0
 15 17  1  0
 17 18  2  0
 11  4  1  0
 18 12  1  0
M  END
>  <zinc_id>  (1032) 
ZINC000013809225

>  <ortholog_name>  (1032) 
DRTS_PLAFK

>  <gene_name>  (1032) 
DRTS_PLAFK

>  <affinity>  (1032) 
5.92

>  <chembldocid>  (1032) 
15522

>  <title>  (1032) 
None

>  <reference.pubmed_id>  (1032) 
10893311

>  <reference.doi>  (1032) 
None

>  <reference.chembl_id>  (1032) 
CHEMBL1133696

>  <reference.journal>  (1032) 
J. Med. Chem.

>  <reference.year>  (1032) 
2000

$$$$

     RDKit          3D

 18 19  0  0  0  0  0  0  0  0999 V2000
   -1.4099    1.7382    0.9102 C   0  0  0  0  0  0  0  0  0  0  0  0
   -1.1654    1.7692   -0.5159 C   0  0  0  0  0  0  0  0  0  0  0  0
   -2.0347    2.6167   -1.3586 C   0  0  0  0  0  0  0  0  0  0  0  0
   -1.2174    0.2548   -1.1396 C   0  0  2  0  0  0  0  0  0  0  0  0
   -2.6727   -0.0443   -0.7243 N   0  0  0  0  0  0  0  0  0  0  0  0
   -3.0964   -0.6149    0.2325 C   0  0  0  0  0  0  0  0  0  0  0  0
   -4.5318   -0.7563    0.3767 N   0  0  0  0  0  0  0  0  0  0  0  0
   -2.2580   -1.1389    1.1968 N   0  0  0  0  0  0  0  0  0  0  0  0
   -1.0072   -1.0213    1.0809 C   0  0  0  0  0  0  0  0  0  0  0  0
   -0.1023   -1.5662    2.0861 N   0  0  0  0  0  0  0  0  0  0  0  0
   -0.4441   -0.3961    0.0396 N   0  0  0  0  0  0  0  0  0  0  0  0
    0.9697   -0.2534   -0.1083 C   0  0  0  0  0  0  0  0  0  0  0  0
    1.5981    0.3745   -1.1497 C   0  0  0  0  0  0  0  0  0  0  0  0
    2.9714    0.4852   -1.2452 C   0  0  0  0  0  0  0  0  0  0  0  0
    3.7691   -0.0492   -0.2657 C   0  0  0  0  0  0  0  0  0  0  0  0
    5.6879    0.0737   -0.3439 Br  0  0  0  0  0  0  0  0  0  0  0  0
    3.1535   -0.6859    0.7919 C   0  0  0  0  0  0  0  0  0  0  0  0
    1.7901   -0.7859    0.8695 C   0  0  0  0  0  0  0  0  0  0  0  0
  1  2  1  0
  2  3  1  0
  4  2  1  1
  4  5  1  0
  5  6  2  0
  6  7  1  0
  6  8  1  0
  8  9  2  0
  9 10  1  0
  9 11  1  0
 11 12  1  0
 12 13  2  0
 13 14  1  0
 14 15  2  0
 15 16  1  0
 15 17  1  0
 17 18  2  0
 11  4  1  0
 18 12  1  0
M  END
>  <zinc_id>  (1033) 
ZINC000013809225

>  <ortholog_name>  (1033) 
DRTS_PLAFK

>  <gene_name>  (1033) 
DRTS_PLAFK

>  <affinity>  (1033) 
7.52

>  <chembldocid>  (1033) 
15522

>  <title>  (1033) 
None

>  <reference.pubmed_id>  (1033) 
10893311

>  <reference.doi>  (1033) 
None

>  <reference.chembl_id>  (1033) 
CHEMBL1133696

>  <reference.journal>  (1033) 
J. Med. Chem.

>  <reference.year>  (1033) 
2000

$$$$

     RDKit          3D

 18 19  0  0  0  0  0  0  0  0999 V2000
   -0.3212    2.2085    1.0344 C   0  0  0  0  0  0  0  0  0  0  0  0
   -1.5914    1.5215    0.5982 C   0  0  0  0  0  0  0  0  0  0  0  0
   -2.7005    1.9648    1.4790 C   0  0  0  0  0  0  0  0  0  0  0  0
   -1.3211   -0.0899    0.9248 C   0  0  1  0  0  0  0  0  0  0  0  0
   -2.6861   -0.5562    0.4262 N   0  0  0  0  0  0  0  0  0  0  0  0
   -3.0755   -0.8713   -0.6708 C   0  0  0  0  0  0  0  0  0  0  0  0
   -4.4608   -1.2780   -0.8630 N   0  0  0  0  0  0  0  0  0  0  0  0
   -2.1578   -0.8858   -1.7237 N   0  0  0  0  0  0  0  0  0  0  0  0
   -0.9448   -0.5920   -1.5663 C   0  0  0  0  0  0  0  0  0  0  0  0
   -0.0082   -0.6063   -2.6776 N   0  0  0  0  0  0  0  0  0  0  0  0
   -0.4273   -0.3065   -0.3221 N   0  0  0  0  0  0  0  0  0  0  0  0
    0.9740   -0.1966   -0.0507 C   0  0  0  0  0  0  0  0  0  0  0  0
    1.4863    0.0332    1.1891 C   0  0  0  0  0  0  0  0  0  0  0  0
    2.8451    0.1224    1.3464 C   0  0  0  0  0  0  0  0  0  0  0  0
    3.7391   -0.0103    0.2991 C   0  0  0  0  0  0  0  0  0  0  0  0
    5.6295    0.1186    0.5474 Br  0  0  0  0  0  0  0  0  0  0  0  0
    3.2020   -0.2428   -0.9503 C   0  0  0  0  0  0  0  0  0  0  0  0
    1.8188   -0.3333   -1.1089 C   0  0  0  0  0  0  0  0  0  0  0  0
  1  2  1  0
  2  3  1  0
  4  2  1  6
  4  5  1  0
  5  6  2  0
  6  7  1  0
  6  8  1  0
  8  9  2  0
  9 10  1  0
  9 11  1  0
 11 12  1  0
 12 13  2  0
 13 14  1  0
 14 15  2  0
 15 16  1  0
 15 17  1  0
 17 18  2  0
 11  4  1  0
 18 12  1  0
M  END
>  <zinc_id>  (1034) 
ZINC000013809227

>  <ortholog_name>  (1034) 
DRTS_PLAFK

>  <gene_name>  (1034) 
DRTS_PLAFK

>  <affinity>  (1034) 
5.92

>  <chembldocid>  (1034) 
15522

>  <title>  (1034) 
None

>  <reference.pubmed_id>  (1034) 
10893311

>  <reference.doi>  (1034) 
None

>  <reference.chembl_id>  (1034) 
CHEMBL1133696

>  <reference.journal>  (1034) 
J. Med. Chem.

>  <reference.year>  (1034) 
2000

$$$$

     RDKit          3D

 18 19  0  0  0  0  0  0  0  0999 V2000
   -0.3212    2.2085    1.0344 C   0  0  0  0  0  0  0  0  0  0  0  0
   -1.5914    1.5215    0.5982 C   0  0  0  0  0  0  0  0  0  0  0  0
   -2.7005    1.9648    1.4790 C   0  0  0  0  0  0  0  0  0  0  0  0
   -1.3211   -0.0899    0.9248 C   0  0  1  0  0  0  0  0  0  0  0  0
   -2.6861   -0.5562    0.4262 N   0  0  0  0  0  0  0  0  0  0  0  0
   -3.0755   -0.8713   -0.6708 C   0  0  0  0  0  0  0  0  0  0  0  0
   -4.4608   -1.2780   -0.8630 N   0  0  0  0  0  0  0  0  0  0  0  0
   -2.1578   -0.8858   -1.7237 N   0  0  0  0  0  0  0  0  0  0  0  0
   -0.9448   -0.5920   -1.5663 C   0  0  0  0  0  0  0  0  0  0  0  0
   -0.0082   -0.6063   -2.6776 N   0  0  0  0  0  0  0  0  0  0  0  0
   -0.4273   -0.3065   -0.3221 N   0  0  0  0  0  0  0  0  0  0  0  0
    0.9740   -0.1966   -0.0507 C   0  0  0  0  0  0  0  0  0  0  0  0
    1.4863    0.0332    1.1891 C   0  0  0  0  0  0  0  0  0  0  0  0
    2.8451    0.1224    1.3464 C   0  0  0  0  0  0  0  0  0  0  0  0
    3.7391   -0.0103    0.2991 C   0  0  0  0  0  0  0  0  0  0  0  0
    5.6295    0.1186    0.5474 Br  0  0  0  0  0  0  0  0  0  0  0  0
    3.2020   -0.2428   -0.9503 C   0  0  0  0  0  0  0  0  0  0  0  0
    1.8188   -0.3333   -1.1089 C   0  0  0  0  0  0  0  0  0  0  0  0
  1  2  1  0
  2  3  1  0
  4  2  1  6
  4  5  1  0
  5  6  2  0
  6  7  1  0
  6  8  1  0
  8  9  2  0
  9 10  1  0
  9 11  1  0
 11 12  1  0
 12 13  2  0
 13 14  1  0
 14 15  2  0
 15 16  1  0
 15 17  1  0
 17 18  2  0
 11  4  1  0
 18 12  1  0
M  END
>  <zinc_id>  (1035) 
ZINC000013809227

>  <ortholog_name>  (1035) 
DRTS_PLAFK

>  <gene_name>  (1035) 
DRTS_PLAFK

>  <affinity>  (1035) 
7.52

>  <chembldocid>  (1035) 
15522

>  <title>  (1035) 
None

>  <reference.pubmed_id>  (1035) 
10893311

>  <reference.doi>  (1035) 
None

>  <reference.chembl_id>  (1035) 
CHEMBL1133696

>  <reference.journal>  (1035) 
J. Med. Chem.

>  <reference.year>  (1035) 
2000

$$$$

     RDKit          3D

 17 18  0  0  0  0  0  0  0  0999 V2000
   -2.1491   -1.2542   -2.7655 C   0  0  0  0  0  0  0  0  0  0  0  0
   -1.0701   -0.5647   -2.0085 C   0  0  0  0  0  0  0  0  0  0  0  0
   -1.5042   -0.6839   -0.4056 C   0  0  2  0  0  0  0  0  0  0  0  0
   -2.7804    0.0026   -0.4139 N   0  0  0  0  0  0  0  0  0  0  0  0
   -2.9975    1.1480   -0.0084 C   0  0  0  0  0  0  0  0  0  0  0  0
   -4.3678    1.6163   -0.1236 N   0  0  0  0  0  0  0  0  0  0  0  0
   -2.0142    2.0305    0.5563 N   0  0  0  0  0  0  0  0  0  0  0  0
   -0.8284    1.5023    0.6073 C   0  0  0  0  0  0  0  0  0  0  0  0
    0.2923    2.2549    1.1508 N   0  0  0  0  0  0  0  0  0  0  0  0
   -0.4908    0.2245    0.1758 N   0  0  0  0  0  0  0  0  0  0  0  0
    0.8742   -0.2664    0.2805 C   0  0  0  0  0  0  0  0  0  0  0  0
    1.7941   -0.1002   -0.7144 C   0  0  0  0  0  0  0  0  0  0  0  0
    3.0635   -0.5902   -0.5451 C   0  0  0  0  0  0  0  0  0  0  0  0
    3.4813   -1.2473    0.5734 C   0  0  0  0  0  0  0  0  0  0  0  0
    4.8741   -1.7386    0.6597 C   0  0  0  0  0  0  0  0  0  0  0  0
    2.5483   -1.4114    1.5729 C   0  0  0  0  0  0  0  0  0  0  0  0
    1.2746   -0.9222    1.4084 C   0  0  0  0  0  0  0  0  0  0  0  0
  1  2  1  0
  3  2  1  6
  3  4  1  0
  4  5  2  0
  5  6  1  0
  5  7  1  0
  7  8  2  0
  8  9  1  0
  8 10  1  0
 10 11  1  0
 11 12  2  0
 12 13  1  0
 13 14  2  0
 14 15  1  0
 14 16  1  0
 16 17  2  0
 10  3  1  0
 17 11  1  0
M  END
>  <zinc_id>  (1036) 
ZINC000013809229

>  <ortholog_name>  (1036) 
DRTS_PLAFK

>  <gene_name>  (1036) 
DRTS_PLAFK

>  <affinity>  (1036) 
6.89

>  <chembldocid>  (1036) 
15522

>  <title>  (1036) 
None

>  <reference.pubmed_id>  (1036) 
10893311

>  <reference.doi>  (1036) 
None

>  <reference.chembl_id>  (1036) 
CHEMBL1133696

>  <reference.journal>  (1036) 
J. Med. Chem.

>  <reference.year>  (1036) 
2000

$$$$

     RDKit          3D

 17 18  0  0  0  0  0  0  0  0999 V2000
   -2.1491   -1.2542   -2.7655 C   0  0  0  0  0  0  0  0  0  0  0  0
   -1.0701   -0.5647   -2.0085 C   0  0  0  0  0  0  0  0  0  0  0  0
   -1.5042   -0.6839   -0.4056 C   0  0  2  0  0  0  0  0  0  0  0  0
   -2.7804    0.0026   -0.4139 N   0  0  0  0  0  0  0  0  0  0  0  0
   -2.9975    1.1480   -0.0084 C   0  0  0  0  0  0  0  0  0  0  0  0
   -4.3678    1.6163   -0.1236 N   0  0  0  0  0  0  0  0  0  0  0  0
   -2.0142    2.0305    0.5563 N   0  0  0  0  0  0  0  0  0  0  0  0
   -0.8284    1.5023    0.6073 C   0  0  0  0  0  0  0  0  0  0  0  0
    0.2923    2.2549    1.1508 N   0  0  0  0  0  0  0  0  0  0  0  0
   -0.4908    0.2245    0.1758 N   0  0  0  0  0  0  0  0  0  0  0  0
    0.8742   -0.2664    0.2805 C   0  0  0  0  0  0  0  0  0  0  0  0
    1.7941   -0.1002   -0.7144 C   0  0  0  0  0  0  0  0  0  0  0  0
    3.0635   -0.5902   -0.5451 C   0  0  0  0  0  0  0  0  0  0  0  0
    3.4813   -1.2473    0.5734 C   0  0  0  0  0  0  0  0  0  0  0  0
    4.8741   -1.7386    0.6597 C   0  0  0  0  0  0  0  0  0  0  0  0
    2.5483   -1.4114    1.5729 C   0  0  0  0  0  0  0  0  0  0  0  0
    1.2746   -0.9222    1.4084 C   0  0  0  0  0  0  0  0  0  0  0  0
  1  2  1  0
  3  2  1  6
  3  4  1  0
  4  5  2  0
  5  6  1  0
  5  7  1  0
  7  8  2  0
  8  9  1  0
  8 10  1  0
 10 11  1  0
 11 12  2  0
 12 13  1  0
 13 14  2  0
 14 15  1  0
 14 16  1  0
 16 17  2  0
 10  3  1  0
 17 11  1  0
M  END
>  <zinc_id>  (1037) 
ZINC000013809229

>  <ortholog_name>  (1037) 
DRTS_PLAFK

>  <gene_name>  (1037) 
DRTS_PLAFK

>  <affinity>  (1037) 
8.23

>  <chembldocid>  (1037) 
15522

>  <title>  (1037) 
None

>  <reference.pubmed_id>  (1037) 
10893311

>  <reference.doi>  (1037) 
None

>  <reference.chembl_id>  (1037) 
CHEMBL1133696

>  <reference.journal>  (1037) 
J. Med. Chem.

>  <reference.year>  (1037) 
2000

$$$$

     RDKit          3D

 17 18  0  0  0  0  0  0  0  0999 V2000
   -2.5447   -1.3770    2.2917 C   0  0  0  0  0  0  0  0  0  0  0  0
   -1.3545   -0.6097    1.7487 C   0  0  0  0  0  0  0  0  0  0  0  0
   -1.4488   -0.9162    0.1270 C   0  0  1  0  0  0  0  0  0  0  0  0
   -2.8032   -0.3191   -0.0637 N   0  0  0  0  0  0  0  0  0  0  0  0
   -3.0850    0.8113   -0.4982 C   0  0  0  0  0  0  0  0  0  0  0  0
   -4.4418    1.2225   -0.6159 N   0  0  0  0  0  0  0  0  0  0  0  0
   -2.0564    1.7348   -0.8935 N   0  0  0  0  0  0  0  0  0  0  0  0
   -0.8547    1.3583   -0.7844 C   0  0  0  0  0  0  0  0  0  0  0  0
    0.2198    2.2802   -1.1806 N   0  0  0  0  0  0  0  0  0  0  0  0
   -0.4585    0.1279   -0.3144 N   0  0  0  0  0  0  0  0  0  0  0  0
    0.9382   -0.2252   -0.2206 C   0  0  0  0  0  0  0  0  0  0  0  0
    1.5556    0.0761    0.9608 C   0  0  0  0  0  0  0  0  0  0  0  0
    2.9196   -0.2274    1.1553 C   0  0  0  0  0  0  0  0  0  0  0  0
    3.6581   -0.8324    0.1623 C   0  0  0  0  0  0  0  0  0  0  0  0
    5.0990   -1.1555    0.3616 C   0  0  0  0  0  0  0  0  0  0  0  0
    3.0107   -1.1253   -1.0192 C   0  0  0  0  0  0  0  0  0  0  0  0
    1.6464   -0.8231   -1.2170 C   0  0  0  0  0  0  0  0  0  0  0  0
  1  2  1  0
  3  2  1  1
  3  4  1  0
  4  5  2  0
  5  6  1  0
  5  7  1  0
  7  8  2  0
  8  9  1  0
  8 10  1  0
 10 11  1  0
 11 12  2  0
 12 13  1  0
 13 14  2  0
 14 15  1  0
 14 16  1  0
 16 17  2  0
 10  3  1  0
 17 11  1  0
M  END
>  <zinc_id>  (1038) 
ZINC000013809231

>  <ortholog_name>  (1038) 
DRTS_PLAFK

>  <gene_name>  (1038) 
DRTS_PLAFK

>  <affinity>  (1038) 
6.89

>  <chembldocid>  (1038) 
15522

>  <title>  (1038) 
None

>  <reference.pubmed_id>  (1038) 
10893311

>  <reference.doi>  (1038) 
None

>  <reference.chembl_id>  (1038) 
CHEMBL1133696

>  <reference.journal>  (1038) 
J. Med. Chem.

>  <reference.year>  (1038) 
2000

$$$$

     RDKit          3D

 17 18  0  0  0  0  0  0  0  0999 V2000
   -2.5447   -1.3770    2.2917 C   0  0  0  0  0  0  0  0  0  0  0  0
   -1.3545   -0.6097    1.7487 C   0  0  0  0  0  0  0  0  0  0  0  0
   -1.4488   -0.9162    0.1270 C   0  0  1  0  0  0  0  0  0  0  0  0
   -2.8032   -0.3191   -0.0637 N   0  0  0  0  0  0  0  0  0  0  0  0
   -3.0850    0.8113   -0.4982 C   0  0  0  0  0  0  0  0  0  0  0  0
   -4.4418    1.2225   -0.6159 N   0  0  0  0  0  0  0  0  0  0  0  0
   -2.0564    1.7348   -0.8935 N   0  0  0  0  0  0  0  0  0  0  0  0
   -0.8547    1.3583   -0.7844 C   0  0  0  0  0  0  0  0  0  0  0  0
    0.2198    2.2802   -1.1806 N   0  0  0  0  0  0  0  0  0  0  0  0
   -0.4585    0.1279   -0.3144 N   0  0  0  0  0  0  0  0  0  0  0  0
    0.9382   -0.2252   -0.2206 C   0  0  0  0  0  0  0  0  0  0  0  0
    1.5556    0.0761    0.9608 C   0  0  0  0  0  0  0  0  0  0  0  0
    2.9196   -0.2274    1.1553 C   0  0  0  0  0  0  0  0  0  0  0  0
    3.6581   -0.8324    0.1623 C   0  0  0  0  0  0  0  0  0  0  0  0
    5.0990   -1.1555    0.3616 C   0  0  0  0  0  0  0  0  0  0  0  0
    3.0107   -1.1253   -1.0192 C   0  0  0  0  0  0  0  0  0  0  0  0
    1.6464   -0.8231   -1.2170 C   0  0  0  0  0  0  0  0  0  0  0  0
  1  2  1  0
  3  2  1  1
  3  4  1  0
  4  5  2  0
  5  6  1  0
  5  7  1  0
  7  8  2  0
  8  9  1  0
  8 10  1  0
 10 11  1  0
 11 12  2  0
 12 13  1  0
 13 14  2  0
 14 15  1  0
 14 16  1  0
 16 17  2  0
 10  3  1  0
 17 11  1  0
M  END
>  <zinc_id>  (1039) 
ZINC000013809231

>  <ortholog_name>  (1039) 
DRTS_PLAFK

>  <gene_name>  (1039) 
DRTS_PLAFK

>  <affinity>  (1039) 
8.23

>  <chembldocid>  (1039) 
15522

>  <title>  (1039) 
None

>  <reference.pubmed_id>  (1039) 
10893311

>  <reference.doi>  (1039) 
None

>  <reference.chembl_id>  (1039) 
CHEMBL1133696

>  <reference.journal>  (1039) 
J. Med. Chem.

>  <reference.year>  (1039) 
2000

$$$$

     RDKit          3D

 18 19  0  0  0  0  0  0  0  0999 V2000
   -2.5791    1.5812    2.7297 C   0  0  0  0  0  0  0  0  0  0  0  0
   -2.6057    0.1376    2.3046 C   0  0  0  0  0  0  0  0  0  0  0  0
   -1.3797   -0.2904    1.5671 C   0  0  0  0  0  0  0  0  0  0  0  0
   -1.3436    0.7221    0.2123 C   0  0  2  0  0  0  0  0  0  0  0  0
   -2.6591    0.2903   -0.3444 N   0  0  0  0  0  0  0  0  0  0  0  0
   -2.8384   -0.5507   -1.2047 C   0  0  0  0  0  0  0  0  0  0  0  0
   -4.1729   -0.9222   -1.7026 N   0  0  0  0  0  0  0  0  0  0  0  0
   -1.8181   -1.2792   -1.8394 N   0  0  0  0  0  0  0  0  0  0  0  0
   -0.5859   -1.0378   -1.4815 C   0  0  0  0  0  0  0  0  0  0  0  0
    0.4584   -1.7652   -2.1128 N   0  0  0  0  0  0  0  0  0  0  0  0
   -0.2694   -0.1016   -0.5128 N   0  0  0  0  0  0  0  0  0  0  0  0
    1.0680    0.1463   -0.1386 C   0  0  0  0  0  0  0  0  0  0  0  0
    2.1414   -0.5235   -0.7095 C   0  0  0  0  0  0  0  0  0  0  0  0
    3.4501   -0.2933   -0.3558 C   0  0  0  0  0  0  0  0  0  0  0  0
    3.7614    0.6373    0.6067 C   0  0  0  0  0  0  0  0  0  0  0  0
    5.1901    0.8564    0.9605 C   0  0  0  0  0  0  0  0  0  0  0  0
    2.7373    1.3258    1.2009 C   0  0  0  0  0  0  0  0  0  0  0  0
    1.4451    1.0671    0.8202 C   0  0  0  0  0  0  0  0  0  0  0  0
  1  2  1  0
  2  3  1  0
  4  3  1  1
  4  5  1  0
  5  6  2  0
  6  7  1  0
  6  8  1  0
  8  9  2  0
  9 10  1  0
  9 11  1  0
 11 12  1  0
 12 13  2  0
 13 14  1  0
 14 15  2  0
 15 16  1  0
 15 17  1  0
 17 18  2  0
 11  4  1  0
 18 12  1  0
M  END
>  <zinc_id>  (1040) 
ZINC000013809233

>  <ortholog_name>  (1040) 
DRTS_PLAFK

>  <gene_name>  (1040) 
DRTS_PLAFK

>  <affinity>  (1040) 
7.86

>  <chembldocid>  (1040) 
15522

>  <title>  (1040) 
None

>  <reference.pubmed_id>  (1040) 
10893311

>  <reference.doi>  (1040) 
None

>  <reference.chembl_id>  (1040) 
CHEMBL1133696

>  <reference.journal>  (1040) 
J. Med. Chem.

>  <reference.year>  (1040) 
2000

$$$$

     RDKit          3D

 18 19  0  0  0  0  0  0  0  0999 V2000
   -2.5791    1.5812    2.7297 C   0  0  0  0  0  0  0  0  0  0  0  0
   -2.6057    0.1376    2.3046 C   0  0  0  0  0  0  0  0  0  0  0  0
   -1.3797   -0.2904    1.5671 C   0  0  0  0  0  0  0  0  0  0  0  0
   -1.3436    0.7221    0.2123 C   0  0  2  0  0  0  0  0  0  0  0  0
   -2.6591    0.2903   -0.3444 N   0  0  0  0  0  0  0  0  0  0  0  0
   -2.8384   -0.5507   -1.2047 C   0  0  0  0  0  0  0  0  0  0  0  0
   -4.1729   -0.9222   -1.7026 N   0  0  0  0  0  0  0  0  0  0  0  0
   -1.8181   -1.2792   -1.8394 N   0  0  0  0  0  0  0  0  0  0  0  0
   -0.5859   -1.0378   -1.4815 C   0  0  0  0  0  0  0  0  0  0  0  0
    0.4584   -1.7652   -2.1128 N   0  0  0  0  0  0  0  0  0  0  0  0
   -0.2694   -0.1016   -0.5128 N   0  0  0  0  0  0  0  0  0  0  0  0
    1.0680    0.1463   -0.1386 C   0  0  0  0  0  0  0  0  0  0  0  0
    2.1414   -0.5235   -0.7095 C   0  0  0  0  0  0  0  0  0  0  0  0
    3.4501   -0.2933   -0.3558 C   0  0  0  0  0  0  0  0  0  0  0  0
    3.7614    0.6373    0.6067 C   0  0  0  0  0  0  0  0  0  0  0  0
    5.1901    0.8564    0.9605 C   0  0  0  0  0  0  0  0  0  0  0  0
    2.7373    1.3258    1.2009 C   0  0  0  0  0  0  0  0  0  0  0  0
    1.4451    1.0671    0.8202 C   0  0  0  0  0  0  0  0  0  0  0  0
  1  2  1  0
  2  3  1  0
  4  3  1  1
  4  5  1  0
  5  6  2  0
  6  7  1  0
  6  8  1  0
  8  9  2  0
  9 10  1  0
  9 11  1  0
 11 12  1  0
 12 13  2  0
 13 14  1  0
 14 15  2  0
 15 16  1  0
 15 17  1  0
 17 18  2  0
 11  4  1  0
 18 12  1  0
M  END
>  <zinc_id>  (1041) 
ZINC000013809233

>  <ortholog_name>  (1041) 
DRTS_PLAFK

>  <gene_name>  (1041) 
DRTS_PLAFK

>  <affinity>  (1041) 
6.73

>  <chembldocid>  (1041) 
15522

>  <title>  (1041) 
None

>  <reference.pubmed_id>  (1041) 
10893311

>  <reference.doi>  (1041) 
None

>  <reference.chembl_id>  (1041) 
CHEMBL1133696

>  <reference.journal>  (1041) 
J. Med. Chem.

>  <reference.year>  (1041) 
2000

$$$$

     RDKit          3D

 18 19  0  0  0  0  0  0  0  0999 V2000
   -3.6696    1.6346    0.7352 C   0  0  0  0  0  0  0  0  0  0  0  0
   -2.5241    2.3347    0.0550 C   0  0  0  0  0  0  0  0  0  0  0  0
   -1.4323    1.3928   -0.3981 C   0  0  0  0  0  0  0  0  0  0  0  0
   -0.8873    0.6543    0.9858 C   0  0  1  0  0  0  0  0  0  0  0  0
   -2.1968    0.0203    1.3747 N   0  0  0  0  0  0  0  0  0  0  0  0
   -2.6423   -1.0982    1.1884 C   0  0  0  0  0  0  0  0  0  0  0  0
   -3.9576   -1.5172    1.6559 N   0  0  0  0  0  0  0  0  0  0  0  0
   -1.8145   -1.9671    0.4934 N   0  0  0  0  0  0  0  0  0  0  0  0
   -0.6694   -1.7044    0.0495 C   0  0  0  0  0  0  0  0  0  0  0  0
    0.0733   -2.6984   -0.6496 N   0  0  0  0  0  0  0  0  0  0  0  0
   -0.1123   -0.4796    0.2204 N   0  0  0  0  0  0  0  0  0  0  0  0
    1.1847   -0.0517   -0.2386 C   0  0  0  0  0  0  0  0  0  0  0  0
    2.3205   -0.1875    0.5299 C   0  0  0  0  0  0  0  0  0  0  0  0
    3.5689    0.2171    0.1053 C   0  0  0  0  0  0  0  0  0  0  0  0
    3.7060    0.7862   -1.1438 C   0  0  0  0  0  0  0  0  0  0  0  0
    5.0757    1.2017   -1.5445 C   0  0  0  0  0  0  0  0  0  0  0  0
    2.6039    0.9413   -1.9429 C   0  0  0  0  0  0  0  0  0  0  0  0
    1.3731    0.5213   -1.4759 C   0  0  0  0  0  0  0  0  0  0  0  0
  1  2  1  0
  2  3  1  0
  4  3  1  6
  4  5  1  0
  5  6  2  0
  6  7  1  0
  6  8  1  0
  8  9  2  0
  9 10  1  0
  9 11  1  0
 11 12  1  0
 12 13  2  0
 13 14  1  0
 14 15  2  0
 15 16  1  0
 15 17  1  0
 17 18  2  0
 11  4  1  0
 18 12  1  0
M  END
>  <zinc_id>  (1042) 
ZINC000013809235

>  <ortholog_name>  (1042) 
DRTS_PLAFK

>  <gene_name>  (1042) 
DRTS_PLAFK

>  <affinity>  (1042) 
7.86

>  <chembldocid>  (1042) 
15522

>  <title>  (1042) 
None

>  <reference.pubmed_id>  (1042) 
10893311

>  <reference.doi>  (1042) 
None

>  <reference.chembl_id>  (1042) 
CHEMBL1133696

>  <reference.journal>  (1042) 
J. Med. Chem.

>  <reference.year>  (1042) 
2000

$$$$

     RDKit          3D

 18 19  0  0  0  0  0  0  0  0999 V2000
   -3.6696    1.6346    0.7352 C   0  0  0  0  0  0  0  0  0  0  0  0
   -2.5241    2.3347    0.0550 C   0  0  0  0  0  0  0  0  0  0  0  0
   -1.4323    1.3928   -0.3981 C   0  0  0  0  0  0  0  0  0  0  0  0
   -0.8873    0.6543    0.9858 C   0  0  1  0  0  0  0  0  0  0  0  0
   -2.1968    0.0203    1.3747 N   0  0  0  0  0  0  0  0  0  0  0  0
   -2.6423   -1.0982    1.1884 C   0  0  0  0  0  0  0  0  0  0  0  0
   -3.9576   -1.5172    1.6559 N   0  0  0  0  0  0  0  0  0  0  0  0
   -1.8145   -1.9671    0.4934 N   0  0  0  0  0  0  0  0  0  0  0  0
   -0.6694   -1.7044    0.0495 C   0  0  0  0  0  0  0  0  0  0  0  0
    0.0733   -2.6984   -0.6496 N   0  0  0  0  0  0  0  0  0  0  0  0
   -0.1123   -0.4796    0.2204 N   0  0  0  0  0  0  0  0  0  0  0  0
    1.1847   -0.0517   -0.2386 C   0  0  0  0  0  0  0  0  0  0  0  0
    2.3205   -0.1875    0.5299 C   0  0  0  0  0  0  0  0  0  0  0  0
    3.5689    0.2171    0.1053 C   0  0  0  0  0  0  0  0  0  0  0  0
    3.7060    0.7862   -1.1438 C   0  0  0  0  0  0  0  0  0  0  0  0
    5.0757    1.2017   -1.5445 C   0  0  0  0  0  0  0  0  0  0  0  0
    2.6039    0.9413   -1.9429 C   0  0  0  0  0  0  0  0  0  0  0  0
    1.3731    0.5213   -1.4759 C   0  0  0  0  0  0  0  0  0  0  0  0
  1  2  1  0
  2  3  1  0
  4  3  1  6
  4  5  1  0
  5  6  2  0
  6  7  1  0
  6  8  1  0
  8  9  2  0
  9 10  1  0
  9 11  1  0
 11 12  1  0
 12 13  2  0
 13 14  1  0
 14 15  2  0
 15 16  1  0
 15 17  1  0
 17 18  2  0
 11  4  1  0
 18 12  1  0
M  END
>  <zinc_id>  (1043) 
ZINC000013809235

>  <ortholog_name>  (1043) 
DRTS_PLAFK

>  <gene_name>  (1043) 
DRTS_PLAFK

>  <affinity>  (1043) 
6.73

>  <chembldocid>  (1043) 
15522

>  <title>  (1043) 
None

>  <reference.pubmed_id>  (1043) 
10893311

>  <reference.doi>  (1043) 
None

>  <reference.chembl_id>  (1043) 
CHEMBL1133696

>  <reference.journal>  (1043) 
J. Med. Chem.

>  <reference.year>  (1043) 
2000

$$$$

     RDKit          3D

 18 19  0  0  0  0  0  0  0  0999 V2000
    5.0847    1.0926   -0.8427 C   0  0  0  0  0  0  0  0  0  0  0  0
    3.6701    0.7046   -0.6135 C   0  0  0  0  0  0  0  0  0  0  0  0
    2.8529    1.3463    0.2726 C   0  0  0  0  0  0  0  0  0  0  0  0
    1.5407    0.9039    0.4134 C   0  0  0  0  0  0  0  0  0  0  0  0
    1.0273   -0.1476   -0.2963 C   0  0  0  0  0  0  0  0  0  0  0  0
   -0.3539   -0.4960   -0.0460 N   0  0  0  0  0  0  0  0  0  0  0  0
   -0.6881   -1.4101    0.9306 C   0  0  0  0  0  0  0  0  0  0  0  0
    0.4109   -2.0031    1.6922 N   0  0  0  0  0  0  0  0  0  0  0  0
   -1.8827   -1.7502    1.1897 N   0  0  0  0  0  0  0  0  0  0  0  0
   -2.9625   -1.1600    0.4332 C   0  0  0  0  0  0  0  0  0  0  0  0
   -4.2916   -1.5585    0.7438 N   0  0  0  0  0  0  0  0  0  0  0  0
   -2.7236   -0.3267   -0.4635 N   0  0  0  0  0  0  0  0  0  0  0  0
   -1.3889    0.1768   -0.8894 C   0  0  1  0  0  0  0  0  0  0  0  0
   -1.3692    1.6778   -0.1696 C   0  0  0  0  0  0  0  0  0  0  0  0
   -1.7205    1.5616    1.2154 C   0  0  0  0  0  0  0  0  0  0  0  0
   -2.2336    2.5382   -1.0417 C   0  0  0  0  0  0  0  0  0  0  0  0
    1.8503   -0.7823   -1.1787 C   0  0  0  0  0  0  0  0  0  0  0  0
    3.1776   -0.3674   -1.3494 C   0  0  0  0  0  0  0  0  0  0  0  0
  1  2  1  0
  2  3  2  0
  3  4  1  0
  4  5  2  0
  5  6  1  0
  6  7  1  0
  7  8  1  0
  7  9  2  0
  9 10  1  0
 10 11  1  0
 10 12  2  0
 12 13  1  0
 13 14  1  1
 14 15  1  0
 14 16  1  0
  5 17  1  0
 17 18  2  0
 18  2  1  0
 13  6  1  0
M  END
>  <zinc_id>  (1044) 
ZINC000013809237

>  <ortholog_name>  (1044) 
DRTS_PLAFK

>  <gene_name>  (1044) 
DRTS_PLAFK

>  <affinity>  (1044) 
5.84

>  <chembldocid>  (1044) 
15522

>  <title>  (1044) 
None

>  <reference.pubmed_id>  (1044) 
10893311

>  <reference.doi>  (1044) 
None

>  <reference.chembl_id>  (1044) 
CHEMBL1133696

>  <reference.journal>  (1044) 
J. Med. Chem.

>  <reference.year>  (1044) 
2000

$$$$

     RDKit          3D

 18 19  0  0  0  0  0  0  0  0999 V2000
    5.0847    1.0926   -0.8427 C   0  0  0  0  0  0  0  0  0  0  0  0
    3.6701    0.7046   -0.6135 C   0  0  0  0  0  0  0  0  0  0  0  0
    2.8529    1.3463    0.2726 C   0  0  0  0  0  0  0  0  0  0  0  0
    1.5407    0.9039    0.4134 C   0  0  0  0  0  0  0  0  0  0  0  0
    1.0273   -0.1476   -0.2963 C   0  0  0  0  0  0  0  0  0  0  0  0
   -0.3539   -0.4960   -0.0460 N   0  0  0  0  0  0  0  0  0  0  0  0
   -0.6881   -1.4101    0.9306 C   0  0  0  0  0  0  0  0  0  0  0  0
    0.4109   -2.0031    1.6922 N   0  0  0  0  0  0  0  0  0  0  0  0
   -1.8827   -1.7502    1.1897 N   0  0  0  0  0  0  0  0  0  0  0  0
   -2.9625   -1.1600    0.4332 C   0  0  0  0  0  0  0  0  0  0  0  0
   -4.2916   -1.5585    0.7438 N   0  0  0  0  0  0  0  0  0  0  0  0
   -2.7236   -0.3267   -0.4635 N   0  0  0  0  0  0  0  0  0  0  0  0
   -1.3889    0.1768   -0.8894 C   0  0  1  0  0  0  0  0  0  0  0  0
   -1.3692    1.6778   -0.1696 C   0  0  0  0  0  0  0  0  0  0  0  0
   -1.7205    1.5616    1.2154 C   0  0  0  0  0  0  0  0  0  0  0  0
   -2.2336    2.5382   -1.0417 C   0  0  0  0  0  0  0  0  0  0  0  0
    1.8503   -0.7823   -1.1787 C   0  0  0  0  0  0  0  0  0  0  0  0
    3.1776   -0.3674   -1.3494 C   0  0  0  0  0  0  0  0  0  0  0  0
  1  2  1  0
  2  3  2  0
  3  4  1  0
  4  5  2  0
  5  6  1  0
  6  7  1  0
  7  8  1  0
  7  9  2  0
  9 10  1  0
 10 11  1  0
 10 12  2  0
 12 13  1  0
 13 14  1  1
 14 15  1  0
 14 16  1  0
  5 17  1  0
 17 18  2  0
 18  2  1  0
 13  6  1  0
M  END
>  <zinc_id>  (1045) 
ZINC000013809237

>  <ortholog_name>  (1045) 
DRTS_PLAFK

>  <gene_name>  (1045) 
DRTS_PLAFK

>  <affinity>  (1045) 
6.78

>  <chembldocid>  (1045) 
15522

>  <title>  (1045) 
None

>  <reference.pubmed_id>  (1045) 
10893311

>  <reference.doi>  (1045) 
None

>  <reference.chembl_id>  (1045) 
CHEMBL1133696

>  <reference.journal>  (1045) 
J. Med. Chem.

>  <reference.year>  (1045) 
2000

$$$$

     RDKit          3D

 18 19  0  0  0  0  0  0  0  0999 V2000
    5.0841    1.2679    0.3284 C   0  0  0  0  0  0  0  0  0  0  0  0
    3.6654    0.8193    0.1963 C   0  0  0  0  0  0  0  0  0  0  0  0
    2.8225    0.8997    1.2638 C   0  0  0  0  0  0  0  0  0  0  0  0
    1.5083    0.4934    1.1719 C   0  0  0  0  0  0  0  0  0  0  0  0
    0.9926   -0.0039    0.0196 C   0  0  0  0  0  0  0  0  0  0  0  0
   -0.3609   -0.4515   -0.1737 N   0  0  0  0  0  0  0  0  0  0  0  0
   -0.7881   -1.0889   -1.3161 C   0  0  0  0  0  0  0  0  0  0  0  0
    0.1910   -1.1569   -2.3894 N   0  0  0  0  0  0  0  0  0  0  0  0
   -1.9418   -1.5748   -1.4183 N   0  0  0  0  0  0  0  0  0  0  0  0
   -2.8804   -1.4896   -0.3862 C   0  0  0  0  0  0  0  0  0  0  0  0
   -4.2064   -2.0770   -0.5073 N   0  0  0  0  0  0  0  0  0  0  0  0
   -2.5901   -0.9191    0.6261 N   0  0  0  0  0  0  0  0  0  0  0  0
   -1.2907   -0.1921    1.0471 C   0  0  2  0  0  0  0  0  0  0  0  0
   -1.8307    1.3057    0.4772 C   0  0  0  0  0  0  0  0  0  0  0  0
   -2.7926    1.7902    1.5159 C   0  0  0  0  0  0  0  0  0  0  0  0
   -0.5938    2.1461    0.6076 C   0  0  0  0  0  0  0  0  0  0  0  0
    1.8509   -0.0846   -1.0640 C   0  0  0  0  0  0  0  0  0  0  0  0
    3.1608    0.3162   -0.9861 C   0  0  0  0  0  0  0  0  0  0  0  0
  1  2  1  0
  2  3  2  0
  3  4  1  0
  4  5  2  0
  5  6  1  0
  6  7  1  0
  7  8  1  0
  7  9  2  0
  9 10  1  0
 10 11  1  0
 10 12  2  0
 12 13  1  0
 13 14  1  6
 14 15  1  0
 14 16  1  0
  5 17  1  0
 17 18  2  0
 18  2  1  0
 13  6  1  0
M  END
>  <zinc_id>  (1046) 
ZINC000013809239

>  <ortholog_name>  (1046) 
DRTS_PLAFK

>  <gene_name>  (1046) 
DRTS_PLAFK

>  <affinity>  (1046) 
5.84

>  <chembldocid>  (1046) 
15522

>  <title>  (1046) 
None

>  <reference.pubmed_id>  (1046) 
10893311

>  <reference.doi>  (1046) 
None

>  <reference.chembl_id>  (1046) 
CHEMBL1133696

>  <reference.journal>  (1046) 
J. Med. Chem.

>  <reference.year>  (1046) 
2000

$$$$

     RDKit          3D

 18 19  0  0  0  0  0  0  0  0999 V2000
    5.0841    1.2679    0.3284 C   0  0  0  0  0  0  0  0  0  0  0  0
    3.6654    0.8193    0.1963 C   0  0  0  0  0  0  0  0  0  0  0  0
    2.8225    0.8997    1.2638 C   0  0  0  0  0  0  0  0  0  0  0  0
    1.5083    0.4934    1.1719 C   0  0  0  0  0  0  0  0  0  0  0  0
    0.9926   -0.0039    0.0196 C   0  0  0  0  0  0  0  0  0  0  0  0
   -0.3609   -0.4515   -0.1737 N   0  0  0  0  0  0  0  0  0  0  0  0
   -0.7881   -1.0889   -1.3161 C   0  0  0  0  0  0  0  0  0  0  0  0
    0.1910   -1.1569   -2.3894 N   0  0  0  0  0  0  0  0  0  0  0  0
   -1.9418   -1.5748   -1.4183 N   0  0  0  0  0  0  0  0  0  0  0  0
   -2.8804   -1.4896   -0.3862 C   0  0  0  0  0  0  0  0  0  0  0  0
   -4.2064   -2.0770   -0.5073 N   0  0  0  0  0  0  0  0  0  0  0  0
   -2.5901   -0.9191    0.6261 N   0  0  0  0  0  0  0  0  0  0  0  0
   -1.2907   -0.1921    1.0471 C   0  0  2  0  0  0  0  0  0  0  0  0
   -1.8307    1.3057    0.4772 C   0  0  0  0  0  0  0  0  0  0  0  0
   -2.7926    1.7902    1.5159 C   0  0  0  0  0  0  0  0  0  0  0  0
   -0.5938    2.1461    0.6076 C   0  0  0  0  0  0  0  0  0  0  0  0
    1.8509   -0.0846   -1.0640 C   0  0  0  0  0  0  0  0  0  0  0  0
    3.1608    0.3162   -0.9861 C   0  0  0  0  0  0  0  0  0  0  0  0
  1  2  1  0
  2  3  2  0
  3  4  1  0
  4  5  2  0
  5  6  1  0
  6  7  1  0
  7  8  1  0
  7  9  2  0
  9 10  1  0
 10 11  1  0
 10 12  2  0
 12 13  1  0
 13 14  1  6
 14 15  1  0
 14 16  1  0
  5 17  1  0
 17 18  2  0
 18  2  1  0
 13  6  1  0
M  END
>  <zinc_id>  (1047) 
ZINC000013809239

>  <ortholog_name>  (1047) 
DRTS_PLAFK

>  <gene_name>  (1047) 
DRTS_PLAFK

>  <affinity>  (1047) 
6.78

>  <chembldocid>  (1047) 
15522

>  <title>  (1047) 
None

>  <reference.pubmed_id>  (1047) 
10893311

>  <reference.doi>  (1047) 
None

>  <reference.chembl_id>  (1047) 
CHEMBL1133696

>  <reference.journal>  (1047) 
J. Med. Chem.

>  <reference.year>  (1047) 
2000

$$$$

     RDKit          3D

 14 15  0  0  0  0  0  0  0  0999 V2000
    4.4315   -0.1960    0.6012 N   0  0  0  0  0  0  0  0  0  0  0  0
    2.9946   -0.2123    0.4881 C   0  0  0  0  0  0  0  0  0  0  0  0
    2.3051   -1.1479    0.9934 N   0  0  0  0  0  0  0  0  0  0  0  0
    0.8892   -1.2593    0.9394 C   0  0  0  0  0  0  0  0  0  0  0  0
    0.3210   -0.1600    0.2280 N   0  0  0  0  0  0  0  0  0  0  0  0
   -1.1186   -0.1251    0.0840 C   0  0  0  0  0  0  0  0  0  0  0  0
   -1.7246    0.9141   -0.5947 C   0  0  0  0  0  0  0  0  0  0  0  0
   -3.0958    0.9064   -0.7071 C   0  0  0  0  0  0  0  0  0  0  0  0
   -3.8507   -0.0966   -0.1664 C   0  0  0  0  0  0  0  0  0  0  0  0
   -3.2383   -1.1264    0.5071 C   0  0  0  0  0  0  0  0  0  0  0  0
   -1.8557   -1.1415    0.6343 C   0  0  0  0  0  0  0  0  0  0  0  0
    1.1250    0.8602   -0.3185 C   0  0  0  0  0  0  0  0  0  0  0  0
    0.4145    1.9108   -1.0129 N   0  0  0  0  0  0  0  0  0  0  0  0
    2.4029    0.8738   -0.2174 N   0  0  0  0  0  0  0  0  0  0  0  0
  1  2  1  0
  2  3  2  0
  3  4  1  0
  4  5  1  0
  5  6  1  0
  6  7  2  0
  7  8  1  0
  8  9  2  0
  9 10  1  0
 10 11  2  0
  5 12  1  0
 12 13  1  0
 12 14  2  0
 14  2  1  0
 11  6  1  0
M  END
>  <zinc_id>  (1048) 
ZINC000013809241

>  <ortholog_name>  (1048) 
DRTS_PLAFK

>  <gene_name>  (1048) 
DRTS_PLAFK

>  <affinity>  (1048) 
6.48

>  <chembldocid>  (1048) 
15522

>  <title>  (1048) 
None

>  <reference.pubmed_id>  (1048) 
10893311

>  <reference.doi>  (1048) 
None

>  <reference.chembl_id>  (1048) 
CHEMBL1133696

>  <reference.journal>  (1048) 
J. Med. Chem.

>  <reference.year>  (1048) 
2000

$$$$

     RDKit          3D

 14 15  0  0  0  0  0  0  0  0999 V2000
    4.4315   -0.1960    0.6012 N   0  0  0  0  0  0  0  0  0  0  0  0
    2.9946   -0.2123    0.4881 C   0  0  0  0  0  0  0  0  0  0  0  0
    2.3051   -1.1479    0.9934 N   0  0  0  0  0  0  0  0  0  0  0  0
    0.8892   -1.2593    0.9394 C   0  0  0  0  0  0  0  0  0  0  0  0
    0.3210   -0.1600    0.2280 N   0  0  0  0  0  0  0  0  0  0  0  0
   -1.1186   -0.1251    0.0840 C   0  0  0  0  0  0  0  0  0  0  0  0
   -1.7246    0.9141   -0.5947 C   0  0  0  0  0  0  0  0  0  0  0  0
   -3.0958    0.9064   -0.7071 C   0  0  0  0  0  0  0  0  0  0  0  0
   -3.8507   -0.0966   -0.1664 C   0  0  0  0  0  0  0  0  0  0  0  0
   -3.2383   -1.1264    0.5071 C   0  0  0  0  0  0  0  0  0  0  0  0
   -1.8557   -1.1415    0.6343 C   0  0  0  0  0  0  0  0  0  0  0  0
    1.1250    0.8602   -0.3185 C   0  0  0  0  0  0  0  0  0  0  0  0
    0.4145    1.9108   -1.0129 N   0  0  0  0  0  0  0  0  0  0  0  0
    2.4029    0.8738   -0.2174 N   0  0  0  0  0  0  0  0  0  0  0  0
  1  2  1  0
  2  3  2  0
  3  4  1  0
  4  5  1  0
  5  6  1  0
  6  7  2  0
  7  8  1  0
  8  9  2  0
  9 10  1  0
 10 11  2  0
  5 12  1  0
 12 13  1  0
 12 14  2  0
 14  2  1  0
 11  6  1  0
M  END
>  <zinc_id>  (1049) 
ZINC000013809241

>  <ortholog_name>  (1049) 
DRTS_PLAFK

>  <gene_name>  (1049) 
DRTS_PLAFK

>  <affinity>  (1049) 
6.23

>  <chembldocid>  (1049) 
15522

>  <title>  (1049) 
None

>  <reference.pubmed_id>  (1049) 
10893311

>  <reference.doi>  (1049) 
None

>  <reference.chembl_id>  (1049) 
CHEMBL1133696

>  <reference.journal>  (1049) 
J. Med. Chem.

>  <reference.year>  (1049) 
2000

$$$$

     RDKit          3D

 14 15  0  0  0  0  0  0  0  0999 V2000
    4.4315   -0.1960    0.6012 N   0  0  0  0  0  0  0  0  0  0  0  0
    2.9946   -0.2123    0.4881 C   0  0  0  0  0  0  0  0  0  0  0  0
    2.3051   -1.1479    0.9934 N   0  0  0  0  0  0  0  0  0  0  0  0
    0.8892   -1.2593    0.9394 C   0  0  0  0  0  0  0  0  0  0  0  0
    0.3210   -0.1600    0.2280 N   0  0  0  0  0  0  0  0  0  0  0  0
   -1.1186   -0.1251    0.0840 C   0  0  0  0  0  0  0  0  0  0  0  0
   -1.7246    0.9141   -0.5947 C   0  0  0  0  0  0  0  0  0  0  0  0
   -3.0958    0.9064   -0.7071 C   0  0  0  0  0  0  0  0  0  0  0  0
   -3.8507   -0.0966   -0.1664 C   0  0  0  0  0  0  0  0  0  0  0  0
   -3.2383   -1.1264    0.5071 C   0  0  0  0  0  0  0  0  0  0  0  0
   -1.8557   -1.1415    0.6343 C   0  0  0  0  0  0  0  0  0  0  0  0
    1.1250    0.8602   -0.3185 C   0  0  0  0  0  0  0  0  0  0  0  0
    0.4145    1.9108   -1.0129 N   0  0  0  0  0  0  0  0  0  0  0  0
    2.4029    0.8738   -0.2174 N   0  0  0  0  0  0  0  0  0  0  0  0
  1  2  1  0
  2  3  2  0
  3  4  1  0
  4  5  1  0
  5  6  1  0
  6  7  2  0
  7  8  1  0
  8  9  2  0
  9 10  1  0
 10 11  2  0
  5 12  1  0
 12 13  1  0
 12 14  2  0
 14  2  1  0
 11  6  1  0
M  END
>  <zinc_id>  (1050) 
ZINC000013809241

>  <ortholog_name>  (1050) 
DRTS_PLAFK

>  <gene_name>  (1050) 
DRTS_PLAFK

>  <affinity>  (1050) 
7.07

>  <chembldocid>  (1050) 
21047

>  <title>  (1050) 
None

>  <reference.pubmed_id>  (1050) 
15293997

>  <reference.doi>  (1050) 
None

>  <reference.chembl_id>  (1050) 
CHEMBL1138679

>  <reference.journal>  (1050) 
J. Med. Chem.

>  <reference.year>  (1050) 
2004

$$$$

     RDKit          3D

 15 16  0  0  0  0  0  0  0  0999 V2000
    4.6641    1.2083   -0.2958 N   0  0  0  0  0  0  0  0  0  0  0  0
    3.2678    0.8658   -0.1915 C   0  0  0  0  0  0  0  0  0  0  0  0
    2.4828    1.4354   -1.0120 N   0  0  0  0  0  0  0  0  0  0  0  0
    1.0839    1.2121   -1.0458 C   0  0  0  0  0  0  0  0  0  0  0  0
    0.6533    0.2758   -0.0555 N   0  0  0  0  0  0  0  0  0  0  0  0
   -0.7636   -0.0580    0.0345 C   0  0  0  0  0  0  0  0  0  0  0  0
   -1.6912    0.5054   -0.8090 C   0  0  0  0  0  0  0  0  0  0  0  0
   -3.0339    0.1849   -0.7188 C   0  0  0  0  0  0  0  0  0  0  0  0
   -3.4927   -0.7125    0.2213 C   0  0  0  0  0  0  0  0  0  0  0  0
   -4.8142   -1.0282    0.3103 F   0  0  0  0  0  0  0  0  0  0  0  0
   -2.5673   -1.2804    1.0695 C   0  0  0  0  0  0  0  0  0  0  0  0
   -1.2127   -0.9548    0.9759 C   0  0  0  0  0  0  0  0  0  0  0  0
    1.5712   -0.3270    0.8310 C   0  0  0  0  0  0  0  0  0  0  0  0
    1.0262   -1.2605    1.7942 N   0  0  0  0  0  0  0  0  0  0  0  0
    2.8262   -0.0661    0.7914 N   0  0  0  0  0  0  0  0  0  0  0  0
  1  2  1  0
  2  3  2  0
  3  4  1  0
  4  5  1  0
  5  6  1  0
  6  7  2  0
  7  8  1  0
  8  9  2  0
  9 10  1  0
  9 11  1  0
 11 12  2  0
  5 13  1  0
 13 14  1  0
 13 15  2  0
 15  2  1  0
 12  6  1  0
M  END
>  <zinc_id>  (1051) 
ZINC000013809243

>  <ortholog_name>  (1051) 
DRTS_PLAFK

>  <gene_name>  (1051) 
DRTS_PLAFK

>  <affinity>  (1051) 
6.57

>  <chembldocid>  (1051) 
15522

>  <title>  (1051) 
None

>  <reference.pubmed_id>  (1051) 
10893311

>  <reference.doi>  (1051) 
None

>  <reference.chembl_id>  (1051) 
CHEMBL1133696

>  <reference.journal>  (1051) 
J. Med. Chem.

>  <reference.year>  (1051) 
2000

$$$$

     RDKit          3D

 15 16  0  0  0  0  0  0  0  0999 V2000
    4.6641    1.2083   -0.2958 N   0  0  0  0  0  0  0  0  0  0  0  0
    3.2678    0.8658   -0.1915 C   0  0  0  0  0  0  0  0  0  0  0  0
    2.4828    1.4354   -1.0120 N   0  0  0  0  0  0  0  0  0  0  0  0
    1.0839    1.2121   -1.0458 C   0  0  0  0  0  0  0  0  0  0  0  0
    0.6533    0.2758   -0.0555 N   0  0  0  0  0  0  0  0  0  0  0  0
   -0.7636   -0.0580    0.0345 C   0  0  0  0  0  0  0  0  0  0  0  0
   -1.6912    0.5054   -0.8090 C   0  0  0  0  0  0  0  0  0  0  0  0
   -3.0339    0.1849   -0.7188 C   0  0  0  0  0  0  0  0  0  0  0  0
   -3.4927   -0.7125    0.2213 C   0  0  0  0  0  0  0  0  0  0  0  0
   -4.8142   -1.0282    0.3103 F   0  0  0  0  0  0  0  0  0  0  0  0
   -2.5673   -1.2804    1.0695 C   0  0  0  0  0  0  0  0  0  0  0  0
   -1.2127   -0.9548    0.9759 C   0  0  0  0  0  0  0  0  0  0  0  0
    1.5712   -0.3270    0.8310 C   0  0  0  0  0  0  0  0  0  0  0  0
    1.0262   -1.2605    1.7942 N   0  0  0  0  0  0  0  0  0  0  0  0
    2.8262   -0.0661    0.7914 N   0  0  0  0  0  0  0  0  0  0  0  0
  1  2  1  0
  2  3  2  0
  3  4  1  0
  4  5  1  0
  5  6  1  0
  6  7  2  0
  7  8  1  0
  8  9  2  0
  9 10  1  0
  9 11  1  0
 11 12  2  0
  5 13  1  0
 13 14  1  0
 13 15  2  0
 15  2  1  0
 12  6  1  0
M  END
>  <zinc_id>  (1052) 
ZINC000013809243

>  <ortholog_name>  (1052) 
DRTS_PLAFK

>  <gene_name>  (1052) 
DRTS_PLAFK

>  <affinity>  (1052) 
6.33

>  <chembldocid>  (1052) 
15522

>  <title>  (1052) 
None

>  <reference.pubmed_id>  (1052) 
10893311

>  <reference.doi>  (1052) 
None

>  <reference.chembl_id>  (1052) 
CHEMBL1133696

>  <reference.journal>  (1052) 
J. Med. Chem.

>  <reference.year>  (1052) 
2000

$$$$

     RDKit          3D

 15 16  0  0  0  0  0  0  0  0999 V2000
    4.6641    1.2083   -0.2958 N   0  0  0  0  0  0  0  0  0  0  0  0
    3.2678    0.8658   -0.1915 C   0  0  0  0  0  0  0  0  0  0  0  0
    2.4828    1.4354   -1.0120 N   0  0  0  0  0  0  0  0  0  0  0  0
    1.0839    1.2121   -1.0458 C   0  0  0  0  0  0  0  0  0  0  0  0
    0.6533    0.2758   -0.0555 N   0  0  0  0  0  0  0  0  0  0  0  0
   -0.7636   -0.0580    0.0345 C   0  0  0  0  0  0  0  0  0  0  0  0
   -1.6912    0.5054   -0.8090 C   0  0  0  0  0  0  0  0  0  0  0  0
   -3.0339    0.1849   -0.7188 C   0  0  0  0  0  0  0  0  0  0  0  0
   -3.4927   -0.7125    0.2213 C   0  0  0  0  0  0  0  0  0  0  0  0
   -4.8142   -1.0282    0.3103 F   0  0  0  0  0  0  0  0  0  0  0  0
   -2.5673   -1.2804    1.0695 C   0  0  0  0  0  0  0  0  0  0  0  0
   -1.2127   -0.9548    0.9759 C   0  0  0  0  0  0  0  0  0  0  0  0
    1.5712   -0.3270    0.8310 C   0  0  0  0  0  0  0  0  0  0  0  0
    1.0262   -1.2605    1.7942 N   0  0  0  0  0  0  0  0  0  0  0  0
    2.8262   -0.0661    0.7914 N   0  0  0  0  0  0  0  0  0  0  0  0
  1  2  1  0
  2  3  2  0
  3  4  1  0
  4  5  1  0
  5  6  1  0
  6  7  2  0
  7  8  1  0
  8  9  2  0
  9 10  1  0
  9 11  1  0
 11 12  2  0
  5 13  1  0
 13 14  1  0
 13 15  2  0
 15  2  1  0
 12  6  1  0
M  END
>  <zinc_id>  (1053) 
ZINC000013809243

>  <ortholog_name>  (1053) 
DRTS_PLAFK

>  <gene_name>  (1053) 
DRTS_PLAFK

>  <affinity>  (1053) 
7.06

>  <chembldocid>  (1053) 
21047

>  <title>  (1053) 
None

>  <reference.pubmed_id>  (1053) 
15293997

>  <reference.doi>  (1053) 
None

>  <reference.chembl_id>  (1053) 
CHEMBL1138679

>  <reference.journal>  (1053) 
J. Med. Chem.

>  <reference.year>  (1053) 
2004

$$$$

     RDKit          3D

 23 24  0  0  0  0  0  0  0  0999 V2000
    3.3278    1.5769   -1.3213 C   0  0  0  0  0  0  0  0  0  0  0  0
    4.4891    1.5289   -0.5020 N   0  0  0  0  0  0  0  0  0  0  0  0
    4.7051    0.7922    0.6686 C   0  0  0  0  0  0  0  0  0  0  0  0
    6.1909    0.9823    1.3745 S   0  0  0  0  0  0  0  0  0  0  0  0
    3.8256   -0.0791    1.3185 N   0  0  0  0  0  0  0  0  0  0  0  0
    2.5489   -0.4321    0.9895 N   0  0  0  0  0  0  0  0  0  0  0  0
    2.2330   -1.2193   -0.1565 C   0  0  0  0  0  0  0  0  0  0  0  0
    3.1426   -1.6182   -0.9168 O   0  0  0  0  0  0  0  0  0  0  0  0
    0.8513   -1.5800   -0.4698 C   0  0  0  0  0  0  0  0  0  0  0  0
    0.5777   -2.3432   -1.5860 C   0  0  0  0  0  0  0  0  0  0  0  0
   -0.7157   -2.7249   -1.9273 C   0  0  0  0  0  0  0  0  0  0  0  0
   -1.7219   -2.3028   -1.0917 C   0  0  0  0  0  0  0  0  0  0  0  0
   -1.4854   -1.5543    0.0075 N   0  0  0  0  0  0  0  0  0  0  0  0
   -2.5877   -1.1612    0.8317 C   0  0  0  0  0  0  0  0  0  0  0  0
   -3.1678    0.1126    0.3907 C   0  0  0  0  0  0  0  0  0  0  0  0
   -4.1426    0.1174   -0.5778 C   0  0  0  0  0  0  0  0  0  0  0  0
   -4.7185    1.3183   -1.0035 C   0  0  0  0  0  0  0  0  0  0  0  0
   -4.2788    2.4937   -0.4223 C   0  0  0  0  0  0  0  0  0  0  0  0
   -3.2996    2.5103    0.5529 C   0  0  0  0  0  0  0  0  0  0  0  0
   -2.7686    4.0195    1.2752 Cl  0  0  0  0  0  0  0  0  0  0  0  0
   -2.7500    1.2896    0.9496 C   0  0  0  0  0  0  0  0  0  0  0  0
   -0.2306   -1.2115    0.2958 C   0  0  0  0  0  0  0  0  0  0  0  0
   -0.0249   -0.5149    1.3206 O   0  0  0  0  0  0  0  0  0  0  0  0
  1  2  1  0
  2  3  1  0
  3  4  2  0
  3  5  1  0
  5  6  1  0
  6  7  1  0
  7  8  2  0
  7  9  1  0
  9 10  2  0
 10 11  1  0
 11 12  2  0
 12 13  1  0
 13 14  1  0
 14 15  1  0
 15 16  2  0
 16 17  1  0
 17 18  2  0
 18 19  1  0
 19 20  1  0
 19 21  2  0
 13 22  1  0
 22 23  2  0
 22  9  1  0
 21 15  1  0
M  END
>  <zinc_id>  (1054) 
ZINC000013858385

>  <ortholog_name>  (1054) 
DRTS_PLAFK

>  <gene_name>  (1054) 
DRTS_PLAFK

>  <affinity>  (1054) 
5.74

>  <chembldocid>  (1054) 
17071

>  <title>  (1054) 
None

>  <reference.pubmed_id>  (1054) 
12825927

>  <reference.doi>  (1054) 
None

>  <reference.chembl_id>  (1054) 
CHEMBL1145823

>  <reference.journal>  (1054) 
J. Med. Chem.

>  <reference.year>  (1054) 
2003

$$$$

     RDKit          3D

 23 24  0  0  0  0  0  0  0  0999 V2000
    3.3278    1.5769   -1.3213 C   0  0  0  0  0  0  0  0  0  0  0  0
    4.4891    1.5289   -0.5020 N   0  0  0  0  0  0  0  0  0  0  0  0
    4.7051    0.7922    0.6686 C   0  0  0  0  0  0  0  0  0  0  0  0
    6.1909    0.9823    1.3745 S   0  0  0  0  0  0  0  0  0  0  0  0
    3.8256   -0.0791    1.3185 N   0  0  0  0  0  0  0  0  0  0  0  0
    2.5489   -0.4321    0.9895 N   0  0  0  0  0  0  0  0  0  0  0  0
    2.2330   -1.2193   -0.1565 C   0  0  0  0  0  0  0  0  0  0  0  0
    3.1426   -1.6182   -0.9168 O   0  0  0  0  0  0  0  0  0  0  0  0
    0.8513   -1.5800   -0.4698 C   0  0  0  0  0  0  0  0  0  0  0  0
    0.5777   -2.3432   -1.5860 C   0  0  0  0  0  0  0  0  0  0  0  0
   -0.7157   -2.7249   -1.9273 C   0  0  0  0  0  0  0  0  0  0  0  0
   -1.7219   -2.3028   -1.0917 C   0  0  0  0  0  0  0  0  0  0  0  0
   -1.4854   -1.5543    0.0075 N   0  0  0  0  0  0  0  0  0  0  0  0
   -2.5877   -1.1612    0.8317 C   0  0  0  0  0  0  0  0  0  0  0  0
   -3.1678    0.1126    0.3907 C   0  0  0  0  0  0  0  0  0  0  0  0
   -4.1426    0.1174   -0.5778 C   0  0  0  0  0  0  0  0  0  0  0  0
   -4.7185    1.3183   -1.0035 C   0  0  0  0  0  0  0  0  0  0  0  0
   -4.2788    2.4937   -0.4223 C   0  0  0  0  0  0  0  0  0  0  0  0
   -3.2996    2.5103    0.5529 C   0  0  0  0  0  0  0  0  0  0  0  0
   -2.7686    4.0195    1.2752 Cl  0  0  0  0  0  0  0  0  0  0  0  0
   -2.7500    1.2896    0.9496 C   0  0  0  0  0  0  0  0  0  0  0  0
   -0.2306   -1.2115    0.2958 C   0  0  0  0  0  0  0  0  0  0  0  0
   -0.0249   -0.5149    1.3206 O   0  0  0  0  0  0  0  0  0  0  0  0
  1  2  1  0
  2  3  1  0
  3  4  2  0
  3  5  1  0
  5  6  1  0
  6  7  1  0
  7  8  2  0
  7  9  1  0
  9 10  2  0
 10 11  1  0
 11 12  2  0
 12 13  1  0
 13 14  1  0
 14 15  1  0
 15 16  2  0
 16 17  1  0
 17 18  2  0
 18 19  1  0
 19 20  1  0
 19 21  2  0
 13 22  1  0
 22 23  2  0
 22  9  1  0
 21 15  1  0
M  END
>  <zinc_id>  (1055) 
ZINC000013858385

>  <ortholog_name>  (1055) 
DRTS_PLAFK

>  <gene_name>  (1055) 
DRTS_PLAFK

>  <affinity>  (1055) 
5.23

>  <chembldocid>  (1055) 
17071

>  <title>  (1055) 
None

>  <reference.pubmed_id>  (1055) 
12825927

>  <reference.doi>  (1055) 
None

>  <reference.chembl_id>  (1055) 
CHEMBL1145823

>  <reference.journal>  (1055) 
J. Med. Chem.

>  <reference.year>  (1055) 
2003

$$$$

     RDKit          3D

 23 24  0  0  0  0  0  0  0  0999 V2000
    3.3278    1.5769   -1.3213 C   0  0  0  0  0  0  0  0  0  0  0  0
    4.4891    1.5289   -0.5020 N   0  0  0  0  0  0  0  0  0  0  0  0
    4.7051    0.7922    0.6686 C   0  0  0  0  0  0  0  0  0  0  0  0
    6.1909    0.9823    1.3745 S   0  0  0  0  0  0  0  0  0  0  0  0
    3.8256   -0.0791    1.3185 N   0  0  0  0  0  0  0  0  0  0  0  0
    2.5489   -0.4321    0.9895 N   0  0  0  0  0  0  0  0  0  0  0  0
    2.2330   -1.2193   -0.1565 C   0  0  0  0  0  0  0  0  0  0  0  0
    3.1426   -1.6182   -0.9168 O   0  0  0  0  0  0  0  0  0  0  0  0
    0.8513   -1.5800   -0.4698 C   0  0  0  0  0  0  0  0  0  0  0  0
    0.5777   -2.3432   -1.5860 C   0  0  0  0  0  0  0  0  0  0  0  0
   -0.7157   -2.7249   -1.9273 C   0  0  0  0  0  0  0  0  0  0  0  0
   -1.7219   -2.3028   -1.0917 C   0  0  0  0  0  0  0  0  0  0  0  0
   -1.4854   -1.5543    0.0075 N   0  0  0  0  0  0  0  0  0  0  0  0
   -2.5877   -1.1612    0.8317 C   0  0  0  0  0  0  0  0  0  0  0  0
   -3.1678    0.1126    0.3907 C   0  0  0  0  0  0  0  0  0  0  0  0
   -4.1426    0.1174   -0.5778 C   0  0  0  0  0  0  0  0  0  0  0  0
   -4.7185    1.3183   -1.0035 C   0  0  0  0  0  0  0  0  0  0  0  0
   -4.2788    2.4937   -0.4223 C   0  0  0  0  0  0  0  0  0  0  0  0
   -3.2996    2.5103    0.5529 C   0  0  0  0  0  0  0  0  0  0  0  0
   -2.7686    4.0195    1.2752 Cl  0  0  0  0  0  0  0  0  0  0  0  0
   -2.7500    1.2896    0.9496 C   0  0  0  0  0  0  0  0  0  0  0  0
   -0.2306   -1.2115    0.2958 C   0  0  0  0  0  0  0  0  0  0  0  0
   -0.0249   -0.5149    1.3206 O   0  0  0  0  0  0  0  0  0  0  0  0
  1  2  1  0
  2  3  1  0
  3  4  2  0
  3  5  1  0
  5  6  1  0
  6  7  1  0
  7  8  2  0
  7  9  1  0
  9 10  2  0
 10 11  1  0
 11 12  2  0
 12 13  1  0
 13 14  1  0
 14 15  1  0
 15 16  2  0
 16 17  1  0
 17 18  2  0
 18 19  1  0
 19 20  1  0
 19 21  2  0
 13 22  1  0
 22 23  2  0
 22  9  1  0
 21 15  1  0
M  END
>  <zinc_id>  (1056) 
ZINC000013858385

>  <ortholog_name>  (1056) 
DRTS_PLAFK

>  <gene_name>  (1056) 
DRTS_PLAFK

>  <affinity>  (1056) 
5.15

>  <chembldocid>  (1056) 
17071

>  <title>  (1056) 
None

>  <reference.pubmed_id>  (1056) 
12825927

>  <reference.doi>  (1056) 
None

>  <reference.chembl_id>  (1056) 
CHEMBL1145823

>  <reference.journal>  (1056) 
J. Med. Chem.

>  <reference.year>  (1056) 
2003

$$$$

     RDKit          3D

 23 24  0  0  0  0  0  0  0  0999 V2000
    3.3278    1.5769   -1.3213 C   0  0  0  0  0  0  0  0  0  0  0  0
    4.4891    1.5289   -0.5020 N   0  0  0  0  0  0  0  0  0  0  0  0
    4.7051    0.7922    0.6686 C   0  0  0  0  0  0  0  0  0  0  0  0
    6.1909    0.9823    1.3745 S   0  0  0  0  0  0  0  0  0  0  0  0
    3.8256   -0.0791    1.3185 N   0  0  0  0  0  0  0  0  0  0  0  0
    2.5489   -0.4321    0.9895 N   0  0  0  0  0  0  0  0  0  0  0  0
    2.2330   -1.2193   -0.1565 C   0  0  0  0  0  0  0  0  0  0  0  0
    3.1426   -1.6182   -0.9168 O   0  0  0  0  0  0  0  0  0  0  0  0
    0.8513   -1.5800   -0.4698 C   0  0  0  0  0  0  0  0  0  0  0  0
    0.5777   -2.3432   -1.5860 C   0  0  0  0  0  0  0  0  0  0  0  0
   -0.7157   -2.7249   -1.9273 C   0  0  0  0  0  0  0  0  0  0  0  0
   -1.7219   -2.3028   -1.0917 C   0  0  0  0  0  0  0  0  0  0  0  0
   -1.4854   -1.5543    0.0075 N   0  0  0  0  0  0  0  0  0  0  0  0
   -2.5877   -1.1612    0.8317 C   0  0  0  0  0  0  0  0  0  0  0  0
   -3.1678    0.1126    0.3907 C   0  0  0  0  0  0  0  0  0  0  0  0
   -4.1426    0.1174   -0.5778 C   0  0  0  0  0  0  0  0  0  0  0  0
   -4.7185    1.3183   -1.0035 C   0  0  0  0  0  0  0  0  0  0  0  0
   -4.2788    2.4937   -0.4223 C   0  0  0  0  0  0  0  0  0  0  0  0
   -3.2996    2.5103    0.5529 C   0  0  0  0  0  0  0  0  0  0  0  0
   -2.7686    4.0195    1.2752 Cl  0  0  0  0  0  0  0  0  0  0  0  0
   -2.7500    1.2896    0.9496 C   0  0  0  0  0  0  0  0  0  0  0  0
   -0.2306   -1.2115    0.2958 C   0  0  0  0  0  0  0  0  0  0  0  0
   -0.0249   -0.5149    1.3206 O   0  0  0  0  0  0  0  0  0  0  0  0
  1  2  1  0
  2  3  1  0
  3  4  2  0
  3  5  1  0
  5  6  1  0
  6  7  1  0
  7  8  2  0
  7  9  1  0
  9 10  2  0
 10 11  1  0
 11 12  2  0
 12 13  1  0
 13 14  1  0
 14 15  1  0
 15 16  2  0
 16 17  1  0
 17 18  2  0
 18 19  1  0
 19 20  1  0
 19 21  2  0
 13 22  1  0
 22 23  2  0
 22  9  1  0
 21 15  1  0
M  END
>  <zinc_id>  (1057) 
ZINC000013858385

>  <ortholog_name>  (1057) 
DRTS_PLAFK

>  <gene_name>  (1057) 
DRTS_PLAFK

>  <affinity>  (1057) 
6.05

>  <chembldocid>  (1057) 
21047

>  <title>  (1057) 
None

>  <reference.pubmed_id>  (1057) 
15293997

>  <reference.doi>  (1057) 
None

>  <reference.chembl_id>  (1057) 
CHEMBL1138679

>  <reference.journal>  (1057) 
J. Med. Chem.

>  <reference.year>  (1057) 
2004

$$$$

     RDKit          3D

 16 17  0  0  0  0  0  0  0  0999 V2000
   -0.6361   -0.5097   -2.3141 C   0  0  0  0  0  0  0  0  0  0  0  0
   -1.0605   -0.6607   -0.8671 C   0  0  0  0  0  0  0  0  0  0  0  0
   -0.8505   -2.1252   -0.4445 C   0  0  0  0  0  0  0  0  0  0  0  0
   -2.4669   -0.4112   -0.6926 N   0  0  0  0  0  0  0  0  0  0  0  0
   -2.9864    0.4061    0.1527 C   0  0  0  0  0  0  0  0  0  0  0  0
   -4.4205    0.5706    0.2338 N   0  0  0  0  0  0  0  0  0  0  0  0
   -2.1163    1.1385    0.9996 N   0  0  0  0  0  0  0  0  0  0  0  0
   -0.8431    0.9952    0.9306 C   0  0  0  0  0  0  0  0  0  0  0  0
    0.0481    1.7343    1.7861 N   0  0  0  0  0  0  0  0  0  0  0  0
   -0.2130    0.1090    0.0186 N   0  0  0  0  0  0  0  0  0  0  0  0
    1.2067   -0.0091   -0.0133 C   0  0  0  0  0  0  0  0  0  0  0  0
    2.0383    0.7410   -0.7877 C   0  0  0  0  0  0  0  0  0  0  0  0
    3.4050    0.5509   -0.7478 C   0  0  0  0  0  0  0  0  0  0  0  0
    3.9629   -0.4023    0.0762 C   0  0  0  0  0  0  0  0  0  0  0  0
    3.1422   -1.1684    0.8642 C   0  0  0  0  0  0  0  0  0  0  0  0
    1.7900   -0.9592    0.8052 C   0  0  0  0  0  0  0  0  0  0  0  0
  1  2  1  0
  2  3  1  0
  2  4  1  0
  4  5  2  0
  5  6  1  0
  5  7  1  0
  7  8  2  0
  8  9  1  0
  8 10  1  0
 10 11  1  0
 11 12  2  0
 12 13  1  0
 13 14  2  0
 14 15  1  0
 15 16  2  0
 10  2  1  0
 16 11  1  0
M  END
>  <zinc_id>  (1058) 
ZINC000016981849

>  <ortholog_name>  (1058) 
DRTS_PLAFK

>  <gene_name>  (1058) 
DRTS_PLAFK

>  <affinity>  (1058) 
5.86

>  <chembldocid>  (1058) 
15522

>  <title>  (1058) 
None

>  <reference.pubmed_id>  (1058) 
10893311

>  <reference.doi>  (1058) 
None

>  <reference.chembl_id>  (1058) 
CHEMBL1133696

>  <reference.journal>  (1058) 
J. Med. Chem.

>  <reference.year>  (1058) 
2000

$$$$

     RDKit          3D

 16 17  0  0  0  0  0  0  0  0999 V2000
   -0.6361   -0.5097   -2.3141 C   0  0  0  0  0  0  0  0  0  0  0  0
   -1.0605   -0.6607   -0.8671 C   0  0  0  0  0  0  0  0  0  0  0  0
   -0.8505   -2.1252   -0.4445 C   0  0  0  0  0  0  0  0  0  0  0  0
   -2.4669   -0.4112   -0.6926 N   0  0  0  0  0  0  0  0  0  0  0  0
   -2.9864    0.4061    0.1527 C   0  0  0  0  0  0  0  0  0  0  0  0
   -4.4205    0.5706    0.2338 N   0  0  0  0  0  0  0  0  0  0  0  0
   -2.1163    1.1385    0.9996 N   0  0  0  0  0  0  0  0  0  0  0  0
   -0.8431    0.9952    0.9306 C   0  0  0  0  0  0  0  0  0  0  0  0
    0.0481    1.7343    1.7861 N   0  0  0  0  0  0  0  0  0  0  0  0
   -0.2130    0.1090    0.0186 N   0  0  0  0  0  0  0  0  0  0  0  0
    1.2067   -0.0091   -0.0133 C   0  0  0  0  0  0  0  0  0  0  0  0
    2.0383    0.7410   -0.7877 C   0  0  0  0  0  0  0  0  0  0  0  0
    3.4050    0.5509   -0.7478 C   0  0  0  0  0  0  0  0  0  0  0  0
    3.9629   -0.4023    0.0762 C   0  0  0  0  0  0  0  0  0  0  0  0
    3.1422   -1.1684    0.8642 C   0  0  0  0  0  0  0  0  0  0  0  0
    1.7900   -0.9592    0.8052 C   0  0  0  0  0  0  0  0  0  0  0  0
  1  2  1  0
  2  3  1  0
  2  4  1  0
  4  5  2  0
  5  6  1  0
  5  7  1  0
  7  8  2  0
  8  9  1  0
  8 10  1  0
 10 11  1  0
 11 12  2  0
 12 13  1  0
 13 14  2  0
 14 15  1  0
 15 16  2  0
 10  2  1  0
 16 11  1  0
M  END
>  <zinc_id>  (1059) 
ZINC000016981849

>  <ortholog_name>  (1059) 
DRTS_PLAFK

>  <gene_name>  (1059) 
DRTS_PLAFK

>  <affinity>  (1059) 
6.85

>  <chembldocid>  (1059) 
21047

>  <title>  (1059) 
None

>  <reference.pubmed_id>  (1059) 
15293997

>  <reference.doi>  (1059) 
None

>  <reference.chembl_id>  (1059) 
CHEMBL1138679

>  <reference.journal>  (1059) 
J. Med. Chem.

>  <reference.year>  (1059) 
2004

$$$$

     RDKit          3D

 16 17  0  0  0  0  0  0  0  0999 V2000
   -0.6361   -0.5097   -2.3141 C   0  0  0  0  0  0  0  0  0  0  0  0
   -1.0605   -0.6607   -0.8671 C   0  0  0  0  0  0  0  0  0  0  0  0
   -0.8505   -2.1252   -0.4445 C   0  0  0  0  0  0  0  0  0  0  0  0
   -2.4669   -0.4112   -0.6926 N   0  0  0  0  0  0  0  0  0  0  0  0
   -2.9864    0.4061    0.1527 C   0  0  0  0  0  0  0  0  0  0  0  0
   -4.4205    0.5706    0.2338 N   0  0  0  0  0  0  0  0  0  0  0  0
   -2.1163    1.1385    0.9996 N   0  0  0  0  0  0  0  0  0  0  0  0
   -0.8431    0.9952    0.9306 C   0  0  0  0  0  0  0  0  0  0  0  0
    0.0481    1.7343    1.7861 N   0  0  0  0  0  0  0  0  0  0  0  0
   -0.2130    0.1090    0.0186 N   0  0  0  0  0  0  0  0  0  0  0  0
    1.2067   -0.0091   -0.0133 C   0  0  0  0  0  0  0  0  0  0  0  0
    2.0383    0.7410   -0.7877 C   0  0  0  0  0  0  0  0  0  0  0  0
    3.4050    0.5509   -0.7478 C   0  0  0  0  0  0  0  0  0  0  0  0
    3.9629   -0.4023    0.0762 C   0  0  0  0  0  0  0  0  0  0  0  0
    3.1422   -1.1684    0.8642 C   0  0  0  0  0  0  0  0  0  0  0  0
    1.7900   -0.9592    0.8052 C   0  0  0  0  0  0  0  0  0  0  0  0
  1  2  1  0
  2  3  1  0
  2  4  1  0
  4  5  2  0
  5  6  1  0
  5  7  1  0
  7  8  2  0
  8  9  1  0
  8 10  1  0
 10 11  1  0
 11 12  2  0
 12 13  1  0
 13 14  2  0
 14 15  1  0
 15 16  2  0
 10  2  1  0
 16 11  1  0
M  END
>  <zinc_id>  (1060) 
ZINC000016981849

>  <ortholog_name>  (1060) 
DRTS_PLAFK

>  <gene_name>  (1060) 
DRTS_PLAFK

>  <affinity>  (1060) 
7.70

>  <chembldocid>  (1060) 
15522

>  <title>  (1060) 
None

>  <reference.pubmed_id>  (1060) 
10893311

>  <reference.doi>  (1060) 
None

>  <reference.chembl_id>  (1060) 
CHEMBL1133696

>  <reference.journal>  (1060) 
J. Med. Chem.

>  <reference.year>  (1060) 
2000

$$$$

     RDKit          3D

 21 23  0  0  0  0  0  0  0  0999 V2000
   -2.8020   -3.4647    0.8208 N   0  0  0  0  0  0  0  0  0  0  0  0
   -1.7913   -2.4889    0.5752 C   0  0  0  0  0  0  0  0  0  0  0  0
   -1.6016   -1.5531    1.3144 N   0  0  0  0  0  0  0  0  0  0  0  0
   -0.5626   -0.4173    1.1832 C   0  0  2  0  0  0  0  0  0  0  0  0
   -1.5299    0.6054    0.4429 C   0  0  0  0  0  0  0  0  0  0  0  0
   -2.7284    0.7886    1.0627 C   0  0  0  0  0  0  0  0  0  0  0  0
   -3.6831    1.6714    0.5037 C   0  0  0  0  0  0  0  0  0  0  0  0
   -3.3262    2.3008   -0.6583 C   0  0  0  0  0  0  0  0  0  0  0  0
   -2.1193    2.1027   -1.2633 C   0  0  0  0  0  0  0  0  0  0  0  0
   -1.2292    1.2338   -0.6765 C   0  0  0  0  0  0  0  0  0  0  0  0
    0.3377   -0.8631   -0.0123 N   0  0  0  0  0  0  0  0  0  0  0  0
    1.4999   -0.0440   -0.0933 C   0  0  0  0  0  0  0  0  0  0  0  0
    2.5877   -0.3547    0.6687 C   0  0  0  0  0  0  0  0  0  0  0  0
    3.7316    0.4135    0.5998 C   0  0  0  0  0  0  0  0  0  0  0  0
    3.8029    1.5091   -0.2372 C   0  0  0  0  0  0  0  0  0  0  0  0
    5.2425    2.5091   -0.3503 Cl  0  0  0  0  0  0  0  0  0  0  0  0
    2.6831    1.7947   -0.9944 C   0  0  0  0  0  0  0  0  0  0  0  0
    1.5440    1.0275   -0.9240 C   0  0  0  0  0  0  0  0  0  0  0  0
    0.0481   -1.9235   -0.8125 C   0  0  0  0  0  0  0  0  0  0  0  0
    0.8245   -2.2091   -1.9555 N   0  0  0  0  0  0  0  0  0  0  0  0
   -0.9285   -2.6383   -0.5029 N   0  0  0  0  0  0  0  0  0  0  0  0
  1  2  1  0
  2  3  2  0
  3  4  1  0
  4  5  1  6
  5  6  2  0
  6  7  1  0
  7  8  2  0
  8  9  1  0
  9 10  2  0
  4 11  1  0
 11 12  1  0
 12 13  2  0
 13 14  1  0
 14 15  2  0
 15 16  1  0
 15 17  1  0
 17 18  2  0
 11 19  1  0
 19 20  1  0
 19 21  2  0
 21  2  1  0
 10  5  1  0
 18 12  1  0
M  END
>  <zinc_id>  (1061) 
ZINC000017039796

>  <ortholog_name>  (1061) 
DRTS_PLAFK

>  <gene_name>  (1061) 
DRTS_PLAFK

>  <affinity>  (1061) 
5.73

>  <chembldocid>  (1061) 
17662

>  <title>  (1061) 
None

>  <reference.pubmed_id>  (1061) 
14736247

>  <reference.doi>  (1061) 
None

>  <reference.chembl_id>  (1061) 
CHEMBL1138835

>  <reference.journal>  (1061) 
J. Med. Chem.

>  <reference.year>  (1061) 
2004

$$$$

     RDKit          3D

 21 23  0  0  0  0  0  0  0  0999 V2000
   -2.8020   -3.4647    0.8208 N   0  0  0  0  0  0  0  0  0  0  0  0
   -1.7913   -2.4889    0.5752 C   0  0  0  0  0  0  0  0  0  0  0  0
   -1.6016   -1.5531    1.3144 N   0  0  0  0  0  0  0  0  0  0  0  0
   -0.5626   -0.4173    1.1832 C   0  0  2  0  0  0  0  0  0  0  0  0
   -1.5299    0.6054    0.4429 C   0  0  0  0  0  0  0  0  0  0  0  0
   -2.7284    0.7886    1.0627 C   0  0  0  0  0  0  0  0  0  0  0  0
   -3.6831    1.6714    0.5037 C   0  0  0  0  0  0  0  0  0  0  0  0
   -3.3262    2.3008   -0.6583 C   0  0  0  0  0  0  0  0  0  0  0  0
   -2.1193    2.1027   -1.2633 C   0  0  0  0  0  0  0  0  0  0  0  0
   -1.2292    1.2338   -0.6765 C   0  0  0  0  0  0  0  0  0  0  0  0
    0.3377   -0.8631   -0.0123 N   0  0  0  0  0  0  0  0  0  0  0  0
    1.4999   -0.0440   -0.0933 C   0  0  0  0  0  0  0  0  0  0  0  0
    2.5877   -0.3547    0.6687 C   0  0  0  0  0  0  0  0  0  0  0  0
    3.7316    0.4135    0.5998 C   0  0  0  0  0  0  0  0  0  0  0  0
    3.8029    1.5091   -0.2372 C   0  0  0  0  0  0  0  0  0  0  0  0
    5.2425    2.5091   -0.3503 Cl  0  0  0  0  0  0  0  0  0  0  0  0
    2.6831    1.7947   -0.9944 C   0  0  0  0  0  0  0  0  0  0  0  0
    1.5440    1.0275   -0.9240 C   0  0  0  0  0  0  0  0  0  0  0  0
    0.0481   -1.9235   -0.8125 C   0  0  0  0  0  0  0  0  0  0  0  0
    0.8245   -2.2091   -1.9555 N   0  0  0  0  0  0  0  0  0  0  0  0
   -0.9285   -2.6383   -0.5029 N   0  0  0  0  0  0  0  0  0  0  0  0
  1  2  1  0
  2  3  2  0
  3  4  1  0
  4  5  1  6
  5  6  2  0
  6  7  1  0
  7  8  2  0
  8  9  1  0
  9 10  2  0
  4 11  1  0
 11 12  1  0
 12 13  2  0
 13 14  1  0
 14 15  2  0
 15 16  1  0
 15 17  1  0
 17 18  2  0
 11 19  1  0
 19 20  1  0
 19 21  2  0
 21  2  1  0
 10  5  1  0
 18 12  1  0
M  END
>  <zinc_id>  (1062) 
ZINC000017039796

>  <ortholog_name>  (1062) 
DRTS_PLAFK

>  <gene_name>  (1062) 
DRTS_PLAFK

>  <affinity>  (1062) 
6.71

>  <chembldocid>  (1062) 
17662

>  <title>  (1062) 
None

>  <reference.pubmed_id>  (1062) 
14736247

>  <reference.doi>  (1062) 
None

>  <reference.chembl_id>  (1062) 
CHEMBL1138835

>  <reference.journal>  (1062) 
J. Med. Chem.

>  <reference.year>  (1062) 
2004

$$$$

     RDKit          3D

 21 23  0  0  0  0  0  0  0  0999 V2000
   -2.8020   -3.4647    0.8208 N   0  0  0  0  0  0  0  0  0  0  0  0
   -1.7913   -2.4889    0.5752 C   0  0  0  0  0  0  0  0  0  0  0  0
   -1.6016   -1.5531    1.3144 N   0  0  0  0  0  0  0  0  0  0  0  0
   -0.5626   -0.4173    1.1832 C   0  0  2  0  0  0  0  0  0  0  0  0
   -1.5299    0.6054    0.4429 C   0  0  0  0  0  0  0  0  0  0  0  0
   -2.7284    0.7886    1.0627 C   0  0  0  0  0  0  0  0  0  0  0  0
   -3.6831    1.6714    0.5037 C   0  0  0  0  0  0  0  0  0  0  0  0
   -3.3262    2.3008   -0.6583 C   0  0  0  0  0  0  0  0  0  0  0  0
   -2.1193    2.1027   -1.2633 C   0  0  0  0  0  0  0  0  0  0  0  0
   -1.2292    1.2338   -0.6765 C   0  0  0  0  0  0  0  0  0  0  0  0
    0.3377   -0.8631   -0.0123 N   0  0  0  0  0  0  0  0  0  0  0  0
    1.4999   -0.0440   -0.0933 C   0  0  0  0  0  0  0  0  0  0  0  0
    2.5877   -0.3547    0.6687 C   0  0  0  0  0  0  0  0  0  0  0  0
    3.7316    0.4135    0.5998 C   0  0  0  0  0  0  0  0  0  0  0  0
    3.8029    1.5091   -0.2372 C   0  0  0  0  0  0  0  0  0  0  0  0
    5.2425    2.5091   -0.3503 Cl  0  0  0  0  0  0  0  0  0  0  0  0
    2.6831    1.7947   -0.9944 C   0  0  0  0  0  0  0  0  0  0  0  0
    1.5440    1.0275   -0.9240 C   0  0  0  0  0  0  0  0  0  0  0  0
    0.0481   -1.9235   -0.8125 C   0  0  0  0  0  0  0  0  0  0  0  0
    0.8245   -2.2091   -1.9555 N   0  0  0  0  0  0  0  0  0  0  0  0
   -0.9285   -2.6383   -0.5029 N   0  0  0  0  0  0  0  0  0  0  0  0
  1  2  1  0
  2  3  2  0
  3  4  1  0
  4  5  1  6
  5  6  2  0
  6  7  1  0
  7  8  2  0
  8  9  1  0
  9 10  2  0
  4 11  1  0
 11 12  1  0
 12 13  2  0
 13 14  1  0
 14 15  2  0
 15 16  1  0
 15 17  1  0
 17 18  2  0
 11 19  1  0
 19 20  1  0
 19 21  2  0
 21  2  1  0
 10  5  1  0
 18 12  1  0
M  END
>  <zinc_id>  (1063) 
ZINC000017039796

>  <ortholog_name>  (1063) 
DRTS_PLAFK

>  <gene_name>  (1063) 
DRTS_PLAFK

>  <affinity>  (1063) 
5.61

>  <chembldocid>  (1063) 
17662

>  <title>  (1063) 
None

>  <reference.pubmed_id>  (1063) 
14736247

>  <reference.doi>  (1063) 
None

>  <reference.chembl_id>  (1063) 
CHEMBL1138835

>  <reference.journal>  (1063) 
J. Med. Chem.

>  <reference.year>  (1063) 
2004

$$$$

     RDKit          3D

 21 23  0  0  0  0  0  0  0  0999 V2000
   -2.8020   -3.4647    0.8208 N   0  0  0  0  0  0  0  0  0  0  0  0
   -1.7913   -2.4889    0.5752 C   0  0  0  0  0  0  0  0  0  0  0  0
   -1.6016   -1.5531    1.3144 N   0  0  0  0  0  0  0  0  0  0  0  0
   -0.5626   -0.4173    1.1832 C   0  0  2  0  0  0  0  0  0  0  0  0
   -1.5299    0.6054    0.4429 C   0  0  0  0  0  0  0  0  0  0  0  0
   -2.7284    0.7886    1.0627 C   0  0  0  0  0  0  0  0  0  0  0  0
   -3.6831    1.6714    0.5037 C   0  0  0  0  0  0  0  0  0  0  0  0
   -3.3262    2.3008   -0.6583 C   0  0  0  0  0  0  0  0  0  0  0  0
   -2.1193    2.1027   -1.2633 C   0  0  0  0  0  0  0  0  0  0  0  0
   -1.2292    1.2338   -0.6765 C   0  0  0  0  0  0  0  0  0  0  0  0
    0.3377   -0.8631   -0.0123 N   0  0  0  0  0  0  0  0  0  0  0  0
    1.4999   -0.0440   -0.0933 C   0  0  0  0  0  0  0  0  0  0  0  0
    2.5877   -0.3547    0.6687 C   0  0  0  0  0  0  0  0  0  0  0  0
    3.7316    0.4135    0.5998 C   0  0  0  0  0  0  0  0  0  0  0  0
    3.8029    1.5091   -0.2372 C   0  0  0  0  0  0  0  0  0  0  0  0
    5.2425    2.5091   -0.3503 Cl  0  0  0  0  0  0  0  0  0  0  0  0
    2.6831    1.7947   -0.9944 C   0  0  0  0  0  0  0  0  0  0  0  0
    1.5440    1.0275   -0.9240 C   0  0  0  0  0  0  0  0  0  0  0  0
    0.0481   -1.9235   -0.8125 C   0  0  0  0  0  0  0  0  0  0  0  0
    0.8245   -2.2091   -1.9555 N   0  0  0  0  0  0  0  0  0  0  0  0
   -0.9285   -2.6383   -0.5029 N   0  0  0  0  0  0  0  0  0  0  0  0
  1  2  1  0
  2  3  2  0
  3  4  1  0
  4  5  1  6
  5  6  2  0
  6  7  1  0
  7  8  2  0
  8  9  1  0
  9 10  2  0
  4 11  1  0
 11 12  1  0
 12 13  2  0
 13 14  1  0
 14 15  2  0
 15 16  1  0
 15 17  1  0
 17 18  2  0
 11 19  1  0
 19 20  1  0
 19 21  2  0
 21  2  1  0
 10  5  1  0
 18 12  1  0
M  END
>  <zinc_id>  (1064) 
ZINC000017039796

>  <ortholog_name>  (1064) 
DRTS_PLAFK

>  <gene_name>  (1064) 
DRTS_PLAFK

>  <affinity>  (1064) 
8.35

>  <chembldocid>  (1064) 
15522

>  <title>  (1064) 
None

>  <reference.pubmed_id>  (1064) 
10893311

>  <reference.doi>  (1064) 
None

>  <reference.chembl_id>  (1064) 
CHEMBL1133696

>  <reference.journal>  (1064) 
J. Med. Chem.

>  <reference.year>  (1064) 
2000

$$$$

     RDKit          3D

 21 23  0  0  0  0  0  0  0  0999 V2000
   -2.8020   -3.4647    0.8208 N   0  0  0  0  0  0  0  0  0  0  0  0
   -1.7913   -2.4889    0.5752 C   0  0  0  0  0  0  0  0  0  0  0  0
   -1.6016   -1.5531    1.3144 N   0  0  0  0  0  0  0  0  0  0  0  0
   -0.5626   -0.4173    1.1832 C   0  0  2  0  0  0  0  0  0  0  0  0
   -1.5299    0.6054    0.4429 C   0  0  0  0  0  0  0  0  0  0  0  0
   -2.7284    0.7886    1.0627 C   0  0  0  0  0  0  0  0  0  0  0  0
   -3.6831    1.6714    0.5037 C   0  0  0  0  0  0  0  0  0  0  0  0
   -3.3262    2.3008   -0.6583 C   0  0  0  0  0  0  0  0  0  0  0  0
   -2.1193    2.1027   -1.2633 C   0  0  0  0  0  0  0  0  0  0  0  0
   -1.2292    1.2338   -0.6765 C   0  0  0  0  0  0  0  0  0  0  0  0
    0.3377   -0.8631   -0.0123 N   0  0  0  0  0  0  0  0  0  0  0  0
    1.4999   -0.0440   -0.0933 C   0  0  0  0  0  0  0  0  0  0  0  0
    2.5877   -0.3547    0.6687 C   0  0  0  0  0  0  0  0  0  0  0  0
    3.7316    0.4135    0.5998 C   0  0  0  0  0  0  0  0  0  0  0  0
    3.8029    1.5091   -0.2372 C   0  0  0  0  0  0  0  0  0  0  0  0
    5.2425    2.5091   -0.3503 Cl  0  0  0  0  0  0  0  0  0  0  0  0
    2.6831    1.7947   -0.9944 C   0  0  0  0  0  0  0  0  0  0  0  0
    1.5440    1.0275   -0.9240 C   0  0  0  0  0  0  0  0  0  0  0  0
    0.0481   -1.9235   -0.8125 C   0  0  0  0  0  0  0  0  0  0  0  0
    0.8245   -2.2091   -1.9555 N   0  0  0  0  0  0  0  0  0  0  0  0
   -0.9285   -2.6383   -0.5029 N   0  0  0  0  0  0  0  0  0  0  0  0
  1  2  1  0
  2  3  2  0
  3  4  1  0
  4  5  1  6
  5  6  2  0
  6  7  1  0
  7  8  2  0
  8  9  1  0
  9 10  2  0
  4 11  1  0
 11 12  1  0
 12 13  2  0
 13 14  1  0
 14 15  2  0
 15 16  1  0
 15 17  1  0
 17 18  2  0
 11 19  1  0
 19 20  1  0
 19 21  2  0
 21  2  1  0
 10  5  1  0
 18 12  1  0
M  END
>  <zinc_id>  (1065) 
ZINC000017039796

>  <ortholog_name>  (1065) 
DRTS_PLAFK

>  <gene_name>  (1065) 
DRTS_PLAFK

>  <affinity>  (1065) 
8.35

>  <chembldocid>  (1065) 
17662

>  <title>  (1065) 
None

>  <reference.pubmed_id>  (1065) 
14736247

>  <reference.doi>  (1065) 
None

>  <reference.chembl_id>  (1065) 
CHEMBL1138835

>  <reference.journal>  (1065) 
J. Med. Chem.

>  <reference.year>  (1065) 
2004

$$$$

     RDKit          3D

 21 23  0  0  0  0  0  0  0  0999 V2000
   -2.8020   -3.4647    0.8208 N   0  0  0  0  0  0  0  0  0  0  0  0
   -1.7913   -2.4889    0.5752 C   0  0  0  0  0  0  0  0  0  0  0  0
   -1.6016   -1.5531    1.3144 N   0  0  0  0  0  0  0  0  0  0  0  0
   -0.5626   -0.4173    1.1832 C   0  0  2  0  0  0  0  0  0  0  0  0
   -1.5299    0.6054    0.4429 C   0  0  0  0  0  0  0  0  0  0  0  0
   -2.7284    0.7886    1.0627 C   0  0  0  0  0  0  0  0  0  0  0  0
   -3.6831    1.6714    0.5037 C   0  0  0  0  0  0  0  0  0  0  0  0
   -3.3262    2.3008   -0.6583 C   0  0  0  0  0  0  0  0  0  0  0  0
   -2.1193    2.1027   -1.2633 C   0  0  0  0  0  0  0  0  0  0  0  0
   -1.2292    1.2338   -0.6765 C   0  0  0  0  0  0  0  0  0  0  0  0
    0.3377   -0.8631   -0.0123 N   0  0  0  0  0  0  0  0  0  0  0  0
    1.4999   -0.0440   -0.0933 C   0  0  0  0  0  0  0  0  0  0  0  0
    2.5877   -0.3547    0.6687 C   0  0  0  0  0  0  0  0  0  0  0  0
    3.7316    0.4135    0.5998 C   0  0  0  0  0  0  0  0  0  0  0  0
    3.8029    1.5091   -0.2372 C   0  0  0  0  0  0  0  0  0  0  0  0
    5.2425    2.5091   -0.3503 Cl  0  0  0  0  0  0  0  0  0  0  0  0
    2.6831    1.7947   -0.9944 C   0  0  0  0  0  0  0  0  0  0  0  0
    1.5440    1.0275   -0.9240 C   0  0  0  0  0  0  0  0  0  0  0  0
    0.0481   -1.9235   -0.8125 C   0  0  0  0  0  0  0  0  0  0  0  0
    0.8245   -2.2091   -1.9555 N   0  0  0  0  0  0  0  0  0  0  0  0
   -0.9285   -2.6383   -0.5029 N   0  0  0  0  0  0  0  0  0  0  0  0
  1  2  1  0
  2  3  2  0
  3  4  1  0
  4  5  1  6
  5  6  2  0
  6  7  1  0
  7  8  2  0
  8  9  1  0
  9 10  2  0
  4 11  1  0
 11 12  1  0
 12 13  2  0
 13 14  1  0
 14 15  2  0
 15 16  1  0
 15 17  1  0
 17 18  2  0
 11 19  1  0
 19 20  1  0
 19 21  2  0
 21  2  1  0
 10  5  1  0
 18 12  1  0
M  END
>  <zinc_id>  (1066) 
ZINC000017039796

>  <ortholog_name>  (1066) 
DRTS_PLAFK

>  <gene_name>  (1066) 
DRTS_PLAFK

>  <affinity>  (1066) 
7.31

>  <chembldocid>  (1066) 
15522

>  <title>  (1066) 
None

>  <reference.pubmed_id>  (1066) 
10893311

>  <reference.doi>  (1066) 
None

>  <reference.chembl_id>  (1066) 
CHEMBL1133696

>  <reference.journal>  (1066) 
J. Med. Chem.

>  <reference.year>  (1066) 
2000

$$$$

     RDKit          3D

 21 23  0  0  0  0  0  0  0  0999 V2000
   -2.8020   -3.4647    0.8208 N   0  0  0  0  0  0  0  0  0  0  0  0
   -1.7913   -2.4889    0.5752 C   0  0  0  0  0  0  0  0  0  0  0  0
   -1.6016   -1.5531    1.3144 N   0  0  0  0  0  0  0  0  0  0  0  0
   -0.5626   -0.4173    1.1832 C   0  0  2  0  0  0  0  0  0  0  0  0
   -1.5299    0.6054    0.4429 C   0  0  0  0  0  0  0  0  0  0  0  0
   -2.7284    0.7886    1.0627 C   0  0  0  0  0  0  0  0  0  0  0  0
   -3.6831    1.6714    0.5037 C   0  0  0  0  0  0  0  0  0  0  0  0
   -3.3262    2.3008   -0.6583 C   0  0  0  0  0  0  0  0  0  0  0  0
   -2.1193    2.1027   -1.2633 C   0  0  0  0  0  0  0  0  0  0  0  0
   -1.2292    1.2338   -0.6765 C   0  0  0  0  0  0  0  0  0  0  0  0
    0.3377   -0.8631   -0.0123 N   0  0  0  0  0  0  0  0  0  0  0  0
    1.4999   -0.0440   -0.0933 C   0  0  0  0  0  0  0  0  0  0  0  0
    2.5877   -0.3547    0.6687 C   0  0  0  0  0  0  0  0  0  0  0  0
    3.7316    0.4135    0.5998 C   0  0  0  0  0  0  0  0  0  0  0  0
    3.8029    1.5091   -0.2372 C   0  0  0  0  0  0  0  0  0  0  0  0
    5.2425    2.5091   -0.3503 Cl  0  0  0  0  0  0  0  0  0  0  0  0
    2.6831    1.7947   -0.9944 C   0  0  0  0  0  0  0  0  0  0  0  0
    1.5440    1.0275   -0.9240 C   0  0  0  0  0  0  0  0  0  0  0  0
    0.0481   -1.9235   -0.8125 C   0  0  0  0  0  0  0  0  0  0  0  0
    0.8245   -2.2091   -1.9555 N   0  0  0  0  0  0  0  0  0  0  0  0
   -0.9285   -2.6383   -0.5029 N   0  0  0  0  0  0  0  0  0  0  0  0
  1  2  1  0
  2  3  2  0
  3  4  1  0
  4  5  1  6
  5  6  2  0
  6  7  1  0
  7  8  2  0
  8  9  1  0
  9 10  2  0
  4 11  1  0
 11 12  1  0
 12 13  2  0
 13 14  1  0
 14 15  2  0
 15 16  1  0
 15 17  1  0
 17 18  2  0
 11 19  1  0
 19 20  1  0
 19 21  2  0
 21  2  1  0
 10  5  1  0
 18 12  1  0
M  END
>  <zinc_id>  (1067) 
ZINC000017039796

>  <ortholog_name>  (1067) 
DRTS_PLAFK

>  <gene_name>  (1067) 
DRTS_PLAFK

>  <affinity>  (1067) 
7.31

>  <chembldocid>  (1067) 
17662

>  <title>  (1067) 
None

>  <reference.pubmed_id>  (1067) 
14736247

>  <reference.doi>  (1067) 
None

>  <reference.chembl_id>  (1067) 
CHEMBL1138835

>  <reference.journal>  (1067) 
J. Med. Chem.

>  <reference.year>  (1067) 
2004

$$$$

     RDKit          3D

 21 23  0  0  0  0  0  0  0  0999 V2000
   -3.1348   -3.2620    0.8437 N   0  0  0  0  0  0  0  0  0  0  0  0
   -1.9530   -2.4248    0.7036 C   0  0  0  0  0  0  0  0  0  0  0  0
   -1.8679   -1.3248    1.2283 N   0  0  0  0  0  0  0  0  0  0  0  0
   -0.7732   -0.2953    1.2291 C   0  0  2  0  0  0  0  0  0  0  0  0
   -1.4256    0.6390    0.1110 C   0  0  0  0  0  0  0  0  0  0  0  0
   -2.7633    0.9308    0.2562 C   0  0  0  0  0  0  0  0  0  0  0  0
   -3.4154    1.7457   -0.6705 C   0  0  0  0  0  0  0  0  0  0  0  0
   -2.6516    2.2256   -1.7123 C   0  0  0  0  0  0  0  0  0  0  0  0
   -1.3152    1.9276   -1.8479 C   0  0  0  0  0  0  0  0  0  0  0  0
   -0.7186    1.1190   -0.9064 C   0  0  0  0  0  0  0  0  0  0  0  0
    0.3419   -0.9030    0.3783 N   0  0  0  0  0  0  0  0  0  0  0  0
    1.4927   -0.1280    0.2215 C   0  0  0  0  0  0  0  0  0  0  0  0
    2.6001   -0.5528   -0.5316 C   0  0  0  0  0  0  0  0  0  0  0  0
    3.7332    0.1608   -0.7114 C   0  0  0  0  0  0  0  0  0  0  0  0
    3.8413    1.3963   -0.1280 C   0  0  0  0  0  0  0  0  0  0  0  0
    2.8049    1.8936    0.6281 C   0  0  0  0  0  0  0  0  0  0  0  0
    2.9517    3.4863    1.3765 Cl  0  0  0  0  0  0  0  0  0  0  0  0
    1.6857    1.1232    0.7720 C   0  0  0  0  0  0  0  0  0  0  0  0
    0.1997   -2.1551   -0.1971 C   0  0  0  0  0  0  0  0  0  0  0  0
    1.2348   -2.7247   -0.9899 N   0  0  0  0  0  0  0  0  0  0  0  0
   -0.8674   -2.8774   -0.0534 N   0  0  0  0  0  0  0  0  0  0  0  0
  1  2  1  0
  2  3  2  0
  3  4  1  0
  4  5  1  6
  5  6  2  0
  6  7  1  0
  7  8  2  0
  8  9  1  0
  9 10  2  0
  4 11  1  0
 11 12  1  0
 12 13  2  0
 13 14  1  0
 14 15  2  0
 15 16  1  0
 16 17  1  0
 16 18  2  0
 11 19  1  0
 19 20  1  0
 19 21  2  0
 21  2  1  0
 10  5  1  0
 18 12  1  0
M  END
>  <zinc_id>  (1068) 
ZINC000017040301

>  <ortholog_name>  (1068) 
DRTS_PLAFK

>  <gene_name>  (1068) 
DRTS_PLAFK

>  <affinity>  (1068) 
8.00

>  <chembldocid>  (1068) 
15522

>  <title>  (1068) 
None

>  <reference.pubmed_id>  (1068) 
10893311

>  <reference.doi>  (1068) 
None

>  <reference.chembl_id>  (1068) 
CHEMBL1133696

>  <reference.journal>  (1068) 
J. Med. Chem.

>  <reference.year>  (1068) 
2000

$$$$

     RDKit          3D

 21 23  0  0  0  0  0  0  0  0999 V2000
   -3.1348   -3.2620    0.8437 N   0  0  0  0  0  0  0  0  0  0  0  0
   -1.9530   -2.4248    0.7036 C   0  0  0  0  0  0  0  0  0  0  0  0
   -1.8679   -1.3248    1.2283 N   0  0  0  0  0  0  0  0  0  0  0  0
   -0.7732   -0.2953    1.2291 C   0  0  2  0  0  0  0  0  0  0  0  0
   -1.4256    0.6390    0.1110 C   0  0  0  0  0  0  0  0  0  0  0  0
   -2.7633    0.9308    0.2562 C   0  0  0  0  0  0  0  0  0  0  0  0
   -3.4154    1.7457   -0.6705 C   0  0  0  0  0  0  0  0  0  0  0  0
   -2.6516    2.2256   -1.7123 C   0  0  0  0  0  0  0  0  0  0  0  0
   -1.3152    1.9276   -1.8479 C   0  0  0  0  0  0  0  0  0  0  0  0
   -0.7186    1.1190   -0.9064 C   0  0  0  0  0  0  0  0  0  0  0  0
    0.3419   -0.9030    0.3783 N   0  0  0  0  0  0  0  0  0  0  0  0
    1.4927   -0.1280    0.2215 C   0  0  0  0  0  0  0  0  0  0  0  0
    2.6001   -0.5528   -0.5316 C   0  0  0  0  0  0  0  0  0  0  0  0
    3.7332    0.1608   -0.7114 C   0  0  0  0  0  0  0  0  0  0  0  0
    3.8413    1.3963   -0.1280 C   0  0  0  0  0  0  0  0  0  0  0  0
    2.8049    1.8936    0.6281 C   0  0  0  0  0  0  0  0  0  0  0  0
    2.9517    3.4863    1.3765 Cl  0  0  0  0  0  0  0  0  0  0  0  0
    1.6857    1.1232    0.7720 C   0  0  0  0  0  0  0  0  0  0  0  0
    0.1997   -2.1551   -0.1971 C   0  0  0  0  0  0  0  0  0  0  0  0
    1.2348   -2.7247   -0.9899 N   0  0  0  0  0  0  0  0  0  0  0  0
   -0.8674   -2.8774   -0.0534 N   0  0  0  0  0  0  0  0  0  0  0  0
  1  2  1  0
  2  3  2  0
  3  4  1  0
  4  5  1  6
  5  6  2  0
  6  7  1  0
  7  8  2  0
  8  9  1  0
  9 10  2  0
  4 11  1  0
 11 12  1  0
 12 13  2  0
 13 14  1  0
 14 15  2  0
 15 16  1  0
 16 17  1  0
 16 18  2  0
 11 19  1  0
 19 20  1  0
 19 21  2  0
 21  2  1  0
 10  5  1  0
 18 12  1  0
M  END
>  <zinc_id>  (1069) 
ZINC000017040301

>  <ortholog_name>  (1069) 
DRTS_PLAFK

>  <gene_name>  (1069) 
DRTS_PLAFK

>  <affinity>  (1069) 
7.98

>  <chembldocid>  (1069) 
17662

>  <title>  (1069) 
None

>  <reference.pubmed_id>  (1069) 
14736247

>  <reference.doi>  (1069) 
None

>  <reference.chembl_id>  (1069) 
CHEMBL1138835

>  <reference.journal>  (1069) 
J. Med. Chem.

>  <reference.year>  (1069) 
2004

$$$$

     RDKit          3D

 21 23  0  0  0  0  0  0  0  0999 V2000
   -3.1348   -3.2620    0.8437 N   0  0  0  0  0  0  0  0  0  0  0  0
   -1.9530   -2.4248    0.7036 C   0  0  0  0  0  0  0  0  0  0  0  0
   -1.8679   -1.3248    1.2283 N   0  0  0  0  0  0  0  0  0  0  0  0
   -0.7732   -0.2953    1.2291 C   0  0  2  0  0  0  0  0  0  0  0  0
   -1.4256    0.6390    0.1110 C   0  0  0  0  0  0  0  0  0  0  0  0
   -2.7633    0.9308    0.2562 C   0  0  0  0  0  0  0  0  0  0  0  0
   -3.4154    1.7457   -0.6705 C   0  0  0  0  0  0  0  0  0  0  0  0
   -2.6516    2.2256   -1.7123 C   0  0  0  0  0  0  0  0  0  0  0  0
   -1.3152    1.9276   -1.8479 C   0  0  0  0  0  0  0  0  0  0  0  0
   -0.7186    1.1190   -0.9064 C   0  0  0  0  0  0  0  0  0  0  0  0
    0.3419   -0.9030    0.3783 N   0  0  0  0  0  0  0  0  0  0  0  0
    1.4927   -0.1280    0.2215 C   0  0  0  0  0  0  0  0  0  0  0  0
    2.6001   -0.5528   -0.5316 C   0  0  0  0  0  0  0  0  0  0  0  0
    3.7332    0.1608   -0.7114 C   0  0  0  0  0  0  0  0  0  0  0  0
    3.8413    1.3963   -0.1280 C   0  0  0  0  0  0  0  0  0  0  0  0
    2.8049    1.8936    0.6281 C   0  0  0  0  0  0  0  0  0  0  0  0
    2.9517    3.4863    1.3765 Cl  0  0  0  0  0  0  0  0  0  0  0  0
    1.6857    1.1232    0.7720 C   0  0  0  0  0  0  0  0  0  0  0  0
    0.1997   -2.1551   -0.1971 C   0  0  0  0  0  0  0  0  0  0  0  0
    1.2348   -2.7247   -0.9899 N   0  0  0  0  0  0  0  0  0  0  0  0
   -0.8674   -2.8774   -0.0534 N   0  0  0  0  0  0  0  0  0  0  0  0
  1  2  1  0
  2  3  2  0
  3  4  1  0
  4  5  1  6
  5  6  2  0
  6  7  1  0
  7  8  2  0
  8  9  1  0
  9 10  2  0
  4 11  1  0
 11 12  1  0
 12 13  2  0
 13 14  1  0
 14 15  2  0
 15 16  1  0
 16 17  1  0
 16 18  2  0
 11 19  1  0
 19 20  1  0
 19 21  2  0
 21  2  1  0
 10  5  1  0
 18 12  1  0
M  END
>  <zinc_id>  (1070) 
ZINC000017040301

>  <ortholog_name>  (1070) 
DRTS_PLAFK

>  <gene_name>  (1070) 
DRTS_PLAFK

>  <affinity>  (1070) 
7.93

>  <chembldocid>  (1070) 
15522

>  <title>  (1070) 
None

>  <reference.pubmed_id>  (1070) 
10893311

>  <reference.doi>  (1070) 
None

>  <reference.chembl_id>  (1070) 
CHEMBL1133696

>  <reference.journal>  (1070) 
J. Med. Chem.

>  <reference.year>  (1070) 
2000

$$$$

     RDKit          3D

 21 23  0  0  0  0  0  0  0  0999 V2000
   -3.1348   -3.2620    0.8437 N   0  0  0  0  0  0  0  0  0  0  0  0
   -1.9530   -2.4248    0.7036 C   0  0  0  0  0  0  0  0  0  0  0  0
   -1.8679   -1.3248    1.2283 N   0  0  0  0  0  0  0  0  0  0  0  0
   -0.7732   -0.2953    1.2291 C   0  0  2  0  0  0  0  0  0  0  0  0
   -1.4256    0.6390    0.1110 C   0  0  0  0  0  0  0  0  0  0  0  0
   -2.7633    0.9308    0.2562 C   0  0  0  0  0  0  0  0  0  0  0  0
   -3.4154    1.7457   -0.6705 C   0  0  0  0  0  0  0  0  0  0  0  0
   -2.6516    2.2256   -1.7123 C   0  0  0  0  0  0  0  0  0  0  0  0
   -1.3152    1.9276   -1.8479 C   0  0  0  0  0  0  0  0  0  0  0  0
   -0.7186    1.1190   -0.9064 C   0  0  0  0  0  0  0  0  0  0  0  0
    0.3419   -0.9030    0.3783 N   0  0  0  0  0  0  0  0  0  0  0  0
    1.4927   -0.1280    0.2215 C   0  0  0  0  0  0  0  0  0  0  0  0
    2.6001   -0.5528   -0.5316 C   0  0  0  0  0  0  0  0  0  0  0  0
    3.7332    0.1608   -0.7114 C   0  0  0  0  0  0  0  0  0  0  0  0
    3.8413    1.3963   -0.1280 C   0  0  0  0  0  0  0  0  0  0  0  0
    2.8049    1.8936    0.6281 C   0  0  0  0  0  0  0  0  0  0  0  0
    2.9517    3.4863    1.3765 Cl  0  0  0  0  0  0  0  0  0  0  0  0
    1.6857    1.1232    0.7720 C   0  0  0  0  0  0  0  0  0  0  0  0
    0.1997   -2.1551   -0.1971 C   0  0  0  0  0  0  0  0  0  0  0  0
    1.2348   -2.7247   -0.9899 N   0  0  0  0  0  0  0  0  0  0  0  0
   -0.8674   -2.8774   -0.0534 N   0  0  0  0  0  0  0  0  0  0  0  0
  1  2  1  0
  2  3  2  0
  3  4  1  0
  4  5  1  6
  5  6  2  0
  6  7  1  0
  7  8  2  0
  8  9  1  0
  9 10  2  0
  4 11  1  0
 11 12  1  0
 12 13  2  0
 13 14  1  0
 14 15  2  0
 15 16  1  0
 16 17  1  0
 16 18  2  0
 11 19  1  0
 19 20  1  0
 19 21  2  0
 21  2  1  0
 10  5  1  0
 18 12  1  0
M  END
>  <zinc_id>  (1071) 
ZINC000017040301

>  <ortholog_name>  (1071) 
DRTS_PLAFK

>  <gene_name>  (1071) 
DRTS_PLAFK

>  <affinity>  (1071) 
7.93

>  <chembldocid>  (1071) 
17662

>  <title>  (1071) 
None

>  <reference.pubmed_id>  (1071) 
14736247

>  <reference.doi>  (1071) 
None

>  <reference.chembl_id>  (1071) 
CHEMBL1138835

>  <reference.journal>  (1071) 
J. Med. Chem.

>  <reference.year>  (1071) 
2004

$$$$

     RDKit          3D

 21 23  0  0  0  0  0  0  0  0999 V2000
   -3.1348   -3.2620    0.8437 N   0  0  0  0  0  0  0  0  0  0  0  0
   -1.9530   -2.4248    0.7036 C   0  0  0  0  0  0  0  0  0  0  0  0
   -1.8679   -1.3248    1.2283 N   0  0  0  0  0  0  0  0  0  0  0  0
   -0.7732   -0.2953    1.2291 C   0  0  2  0  0  0  0  0  0  0  0  0
   -1.4256    0.6390    0.1110 C   0  0  0  0  0  0  0  0  0  0  0  0
   -2.7633    0.9308    0.2562 C   0  0  0  0  0  0  0  0  0  0  0  0
   -3.4154    1.7457   -0.6705 C   0  0  0  0  0  0  0  0  0  0  0  0
   -2.6516    2.2256   -1.7123 C   0  0  0  0  0  0  0  0  0  0  0  0
   -1.3152    1.9276   -1.8479 C   0  0  0  0  0  0  0  0  0  0  0  0
   -0.7186    1.1190   -0.9064 C   0  0  0  0  0  0  0  0  0  0  0  0
    0.3419   -0.9030    0.3783 N   0  0  0  0  0  0  0  0  0  0  0  0
    1.4927   -0.1280    0.2215 C   0  0  0  0  0  0  0  0  0  0  0  0
    2.6001   -0.5528   -0.5316 C   0  0  0  0  0  0  0  0  0  0  0  0
    3.7332    0.1608   -0.7114 C   0  0  0  0  0  0  0  0  0  0  0  0
    3.8413    1.3963   -0.1280 C   0  0  0  0  0  0  0  0  0  0  0  0
    2.8049    1.8936    0.6281 C   0  0  0  0  0  0  0  0  0  0  0  0
    2.9517    3.4863    1.3765 Cl  0  0  0  0  0  0  0  0  0  0  0  0
    1.6857    1.1232    0.7720 C   0  0  0  0  0  0  0  0  0  0  0  0
    0.1997   -2.1551   -0.1971 C   0  0  0  0  0  0  0  0  0  0  0  0
    1.2348   -2.7247   -0.9899 N   0  0  0  0  0  0  0  0  0  0  0  0
   -0.8674   -2.8774   -0.0534 N   0  0  0  0  0  0  0  0  0  0  0  0
  1  2  1  0
  2  3  2  0
  3  4  1  0
  4  5  1  6
  5  6  2  0
  6  7  1  0
  7  8  2  0
  8  9  1  0
  9 10  2  0
  4 11  1  0
 11 12  1  0
 12 13  2  0
 13 14  1  0
 14 15  2  0
 15 16  1  0
 16 17  1  0
 16 18  2  0
 11 19  1  0
 19 20  1  0
 19 21  2  0
 21  2  1  0
 10  5  1  0
 18 12  1  0
M  END
>  <zinc_id>  (1072) 
ZINC000017040301

>  <ortholog_name>  (1072) 
DRTS_PLAFK

>  <gene_name>  (1072) 
DRTS_PLAFK

>  <affinity>  (1072) 
6.95

>  <chembldocid>  (1072) 
17662

>  <title>  (1072) 
None

>  <reference.pubmed_id>  (1072) 
14736247

>  <reference.doi>  (1072) 
None

>  <reference.chembl_id>  (1072) 
CHEMBL1138835

>  <reference.journal>  (1072) 
J. Med. Chem.

>  <reference.year>  (1072) 
2004

$$$$

     RDKit          3D

 21 23  0  0  0  0  0  0  0  0999 V2000
   -3.1348   -3.2620    0.8437 N   0  0  0  0  0  0  0  0  0  0  0  0
   -1.9530   -2.4248    0.7036 C   0  0  0  0  0  0  0  0  0  0  0  0
   -1.8679   -1.3248    1.2283 N   0  0  0  0  0  0  0  0  0  0  0  0
   -0.7732   -0.2953    1.2291 C   0  0  2  0  0  0  0  0  0  0  0  0
   -1.4256    0.6390    0.1110 C   0  0  0  0  0  0  0  0  0  0  0  0
   -2.7633    0.9308    0.2562 C   0  0  0  0  0  0  0  0  0  0  0  0
   -3.4154    1.7457   -0.6705 C   0  0  0  0  0  0  0  0  0  0  0  0
   -2.6516    2.2256   -1.7123 C   0  0  0  0  0  0  0  0  0  0  0  0
   -1.3152    1.9276   -1.8479 C   0  0  0  0  0  0  0  0  0  0  0  0
   -0.7186    1.1190   -0.9064 C   0  0  0  0  0  0  0  0  0  0  0  0
    0.3419   -0.9030    0.3783 N   0  0  0  0  0  0  0  0  0  0  0  0
    1.4927   -0.1280    0.2215 C   0  0  0  0  0  0  0  0  0  0  0  0
    2.6001   -0.5528   -0.5316 C   0  0  0  0  0  0  0  0  0  0  0  0
    3.7332    0.1608   -0.7114 C   0  0  0  0  0  0  0  0  0  0  0  0
    3.8413    1.3963   -0.1280 C   0  0  0  0  0  0  0  0  0  0  0  0
    2.8049    1.8936    0.6281 C   0  0  0  0  0  0  0  0  0  0  0  0
    2.9517    3.4863    1.3765 Cl  0  0  0  0  0  0  0  0  0  0  0  0
    1.6857    1.1232    0.7720 C   0  0  0  0  0  0  0  0  0  0  0  0
    0.1997   -2.1551   -0.1971 C   0  0  0  0  0  0  0  0  0  0  0  0
    1.2348   -2.7247   -0.9899 N   0  0  0  0  0  0  0  0  0  0  0  0
   -0.8674   -2.8774   -0.0534 N   0  0  0  0  0  0  0  0  0  0  0  0
  1  2  1  0
  2  3  2  0
  3  4  1  0
  4  5  1  6
  5  6  2  0
  6  7  1  0
  7  8  2  0
  8  9  1  0
  9 10  2  0
  4 11  1  0
 11 12  1  0
 12 13  2  0
 13 14  1  0
 14 15  2  0
 15 16  1  0
 16 17  1  0
 16 18  2  0
 11 19  1  0
 19 20  1  0
 19 21  2  0
 21  2  1  0
 10  5  1  0
 18 12  1  0
M  END
>  <zinc_id>  (1073) 
ZINC000017040301

>  <ortholog_name>  (1073) 
DRTS_PLAFK

>  <gene_name>  (1073) 
DRTS_PLAFK

>  <affinity>  (1073) 
7.70

>  <chembldocid>  (1073) 
17662

>  <title>  (1073) 
None

>  <reference.pubmed_id>  (1073) 
14736247

>  <reference.doi>  (1073) 
None

>  <reference.chembl_id>  (1073) 
CHEMBL1138835

>  <reference.journal>  (1073) 
J. Med. Chem.

>  <reference.year>  (1073) 
2004

$$$$

     RDKit          3D

 21 23  0  0  0  0  0  0  0  0999 V2000
   -3.1348   -3.2620    0.8437 N   0  0  0  0  0  0  0  0  0  0  0  0
   -1.9530   -2.4248    0.7036 C   0  0  0  0  0  0  0  0  0  0  0  0
   -1.8679   -1.3248    1.2283 N   0  0  0  0  0  0  0  0  0  0  0  0
   -0.7732   -0.2953    1.2291 C   0  0  2  0  0  0  0  0  0  0  0  0
   -1.4256    0.6390    0.1110 C   0  0  0  0  0  0  0  0  0  0  0  0
   -2.7633    0.9308    0.2562 C   0  0  0  0  0  0  0  0  0  0  0  0
   -3.4154    1.7457   -0.6705 C   0  0  0  0  0  0  0  0  0  0  0  0
   -2.6516    2.2256   -1.7123 C   0  0  0  0  0  0  0  0  0  0  0  0
   -1.3152    1.9276   -1.8479 C   0  0  0  0  0  0  0  0  0  0  0  0
   -0.7186    1.1190   -0.9064 C   0  0  0  0  0  0  0  0  0  0  0  0
    0.3419   -0.9030    0.3783 N   0  0  0  0  0  0  0  0  0  0  0  0
    1.4927   -0.1280    0.2215 C   0  0  0  0  0  0  0  0  0  0  0  0
    2.6001   -0.5528   -0.5316 C   0  0  0  0  0  0  0  0  0  0  0  0
    3.7332    0.1608   -0.7114 C   0  0  0  0  0  0  0  0  0  0  0  0
    3.8413    1.3963   -0.1280 C   0  0  0  0  0  0  0  0  0  0  0  0
    2.8049    1.8936    0.6281 C   0  0  0  0  0  0  0  0  0  0  0  0
    2.9517    3.4863    1.3765 Cl  0  0  0  0  0  0  0  0  0  0  0  0
    1.6857    1.1232    0.7720 C   0  0  0  0  0  0  0  0  0  0  0  0
    0.1997   -2.1551   -0.1971 C   0  0  0  0  0  0  0  0  0  0  0  0
    1.2348   -2.7247   -0.9899 N   0  0  0  0  0  0  0  0  0  0  0  0
   -0.8674   -2.8774   -0.0534 N   0  0  0  0  0  0  0  0  0  0  0  0
  1  2  1  0
  2  3  2  0
  3  4  1  0
  4  5  1  6
  5  6  2  0
  6  7  1  0
  7  8  2  0
  8  9  1  0
  9 10  2  0
  4 11  1  0
 11 12  1  0
 12 13  2  0
 13 14  1  0
 14 15  2  0
 15 16  1  0
 16 17  1  0
 16 18  2  0
 11 19  1  0
 19 20  1  0
 19 21  2  0
 21  2  1  0
 10  5  1  0
 18 12  1  0
M  END
>  <zinc_id>  (1074) 
ZINC000017040301

>  <ortholog_name>  (1074) 
DRTS_PLAFK

>  <gene_name>  (1074) 
DRTS_PLAFK

>  <affinity>  (1074) 
6.70

>  <chembldocid>  (1074) 
17662

>  <title>  (1074) 
None

>  <reference.pubmed_id>  (1074) 
14736247

>  <reference.doi>  (1074) 
None

>  <reference.chembl_id>  (1074) 
CHEMBL1138835

>  <reference.journal>  (1074) 
J. Med. Chem.

>  <reference.year>  (1074) 
2004

$$$$

     RDKit          3D

 21 23  0  0  0  0  0  0  0  0999 V2000
   -3.1348   -3.2620    0.8437 N   0  0  0  0  0  0  0  0  0  0  0  0
   -1.9530   -2.4248    0.7036 C   0  0  0  0  0  0  0  0  0  0  0  0
   -1.8679   -1.3248    1.2283 N   0  0  0  0  0  0  0  0  0  0  0  0
   -0.7732   -0.2953    1.2291 C   0  0  2  0  0  0  0  0  0  0  0  0
   -1.4256    0.6390    0.1110 C   0  0  0  0  0  0  0  0  0  0  0  0
   -2.7633    0.9308    0.2562 C   0  0  0  0  0  0  0  0  0  0  0  0
   -3.4154    1.7457   -0.6705 C   0  0  0  0  0  0  0  0  0  0  0  0
   -2.6516    2.2256   -1.7123 C   0  0  0  0  0  0  0  0  0  0  0  0
   -1.3152    1.9276   -1.8479 C   0  0  0  0  0  0  0  0  0  0  0  0
   -0.7186    1.1190   -0.9064 C   0  0  0  0  0  0  0  0  0  0  0  0
    0.3419   -0.9030    0.3783 N   0  0  0  0  0  0  0  0  0  0  0  0
    1.4927   -0.1280    0.2215 C   0  0  0  0  0  0  0  0  0  0  0  0
    2.6001   -0.5528   -0.5316 C   0  0  0  0  0  0  0  0  0  0  0  0
    3.7332    0.1608   -0.7114 C   0  0  0  0  0  0  0  0  0  0  0  0
    3.8413    1.3963   -0.1280 C   0  0  0  0  0  0  0  0  0  0  0  0
    2.8049    1.8936    0.6281 C   0  0  0  0  0  0  0  0  0  0  0  0
    2.9517    3.4863    1.3765 Cl  0  0  0  0  0  0  0  0  0  0  0  0
    1.6857    1.1232    0.7720 C   0  0  0  0  0  0  0  0  0  0  0  0
    0.1997   -2.1551   -0.1971 C   0  0  0  0  0  0  0  0  0  0  0  0
    1.2348   -2.7247   -0.9899 N   0  0  0  0  0  0  0  0  0  0  0  0
   -0.8674   -2.8774   -0.0534 N   0  0  0  0  0  0  0  0  0  0  0  0
  1  2  1  0
  2  3  2  0
  3  4  1  0
  4  5  1  6
  5  6  2  0
  6  7  1  0
  7  8  2  0
  8  9  1  0
  9 10  2  0
  4 11  1  0
 11 12  1  0
 12 13  2  0
 13 14  1  0
 14 15  2  0
 15 16  1  0
 16 17  1  0
 16 18  2  0
 11 19  1  0
 19 20  1  0
 19 21  2  0
 21  2  1  0
 10  5  1  0
 18 12  1  0
M  END
>  <zinc_id>  (1075) 
ZINC000017040301

>  <ortholog_name>  (1075) 
DRTS_PLAFK

>  <gene_name>  (1075) 
DRTS_PLAFK

>  <affinity>  (1075) 
6.66

>  <chembldocid>  (1075) 
17662

>  <title>  (1075) 
None

>  <reference.pubmed_id>  (1075) 
14736247

>  <reference.doi>  (1075) 
None

>  <reference.chembl_id>  (1075) 
CHEMBL1138835

>  <reference.journal>  (1075) 
J. Med. Chem.

>  <reference.year>  (1075) 
2004

$$$$

     RDKit          3D

 21 23  0  0  0  0  0  0  0  0999 V2000
   -3.1348   -3.2620    0.8437 N   0  0  0  0  0  0  0  0  0  0  0  0
   -1.9530   -2.4248    0.7036 C   0  0  0  0  0  0  0  0  0  0  0  0
   -1.8679   -1.3248    1.2283 N   0  0  0  0  0  0  0  0  0  0  0  0
   -0.7732   -0.2953    1.2291 C   0  0  2  0  0  0  0  0  0  0  0  0
   -1.4256    0.6390    0.1110 C   0  0  0  0  0  0  0  0  0  0  0  0
   -2.7633    0.9308    0.2562 C   0  0  0  0  0  0  0  0  0  0  0  0
   -3.4154    1.7457   -0.6705 C   0  0  0  0  0  0  0  0  0  0  0  0
   -2.6516    2.2256   -1.7123 C   0  0  0  0  0  0  0  0  0  0  0  0
   -1.3152    1.9276   -1.8479 C   0  0  0  0  0  0  0  0  0  0  0  0
   -0.7186    1.1190   -0.9064 C   0  0  0  0  0  0  0  0  0  0  0  0
    0.3419   -0.9030    0.3783 N   0  0  0  0  0  0  0  0  0  0  0  0
    1.4927   -0.1280    0.2215 C   0  0  0  0  0  0  0  0  0  0  0  0
    2.6001   -0.5528   -0.5316 C   0  0  0  0  0  0  0  0  0  0  0  0
    3.7332    0.1608   -0.7114 C   0  0  0  0  0  0  0  0  0  0  0  0
    3.8413    1.3963   -0.1280 C   0  0  0  0  0  0  0  0  0  0  0  0
    2.8049    1.8936    0.6281 C   0  0  0  0  0  0  0  0  0  0  0  0
    2.9517    3.4863    1.3765 Cl  0  0  0  0  0  0  0  0  0  0  0  0
    1.6857    1.1232    0.7720 C   0  0  0  0  0  0  0  0  0  0  0  0
    0.1997   -2.1551   -0.1971 C   0  0  0  0  0  0  0  0  0  0  0  0
    1.2348   -2.7247   -0.9899 N   0  0  0  0  0  0  0  0  0  0  0  0
   -0.8674   -2.8774   -0.0534 N   0  0  0  0  0  0  0  0  0  0  0  0
  1  2  1  0
  2  3  2  0
  3  4  1  0
  4  5  1  6
  5  6  2  0
  6  7  1  0
  7  8  2  0
  8  9  1  0
  9 10  2  0
  4 11  1  0
 11 12  1  0
 12 13  2  0
 13 14  1  0
 14 15  2  0
 15 16  1  0
 16 17  1  0
 16 18  2  0
 11 19  1  0
 19 20  1  0
 19 21  2  0
 21  2  1  0
 10  5  1  0
 18 12  1  0
M  END
>  <zinc_id>  (1076) 
ZINC000017040301

>  <ortholog_name>  (1076) 
DRTS_PLAFK

>  <gene_name>  (1076) 
DRTS_PLAFK

>  <affinity>  (1076) 
6.60

>  <chembldocid>  (1076) 
17662

>  <title>  (1076) 
None

>  <reference.pubmed_id>  (1076) 
14736247

>  <reference.doi>  (1076) 
None

>  <reference.chembl_id>  (1076) 
CHEMBL1138835

>  <reference.journal>  (1076) 
J. Med. Chem.

>  <reference.year>  (1076) 
2004

$$$$

     RDKit          3D

 21 23  0  0  0  0  0  0  0  0999 V2000
   -3.1348   -3.2620    0.8437 N   0  0  0  0  0  0  0  0  0  0  0  0
   -1.9530   -2.4248    0.7036 C   0  0  0  0  0  0  0  0  0  0  0  0
   -1.8679   -1.3248    1.2283 N   0  0  0  0  0  0  0  0  0  0  0  0
   -0.7732   -0.2953    1.2291 C   0  0  2  0  0  0  0  0  0  0  0  0
   -1.4256    0.6390    0.1110 C   0  0  0  0  0  0  0  0  0  0  0  0
   -2.7633    0.9308    0.2562 C   0  0  0  0  0  0  0  0  0  0  0  0
   -3.4154    1.7457   -0.6705 C   0  0  0  0  0  0  0  0  0  0  0  0
   -2.6516    2.2256   -1.7123 C   0  0  0  0  0  0  0  0  0  0  0  0
   -1.3152    1.9276   -1.8479 C   0  0  0  0  0  0  0  0  0  0  0  0
   -0.7186    1.1190   -0.9064 C   0  0  0  0  0  0  0  0  0  0  0  0
    0.3419   -0.9030    0.3783 N   0  0  0  0  0  0  0  0  0  0  0  0
    1.4927   -0.1280    0.2215 C   0  0  0  0  0  0  0  0  0  0  0  0
    2.6001   -0.5528   -0.5316 C   0  0  0  0  0  0  0  0  0  0  0  0
    3.7332    0.1608   -0.7114 C   0  0  0  0  0  0  0  0  0  0  0  0
    3.8413    1.3963   -0.1280 C   0  0  0  0  0  0  0  0  0  0  0  0
    2.8049    1.8936    0.6281 C   0  0  0  0  0  0  0  0  0  0  0  0
    2.9517    3.4863    1.3765 Cl  0  0  0  0  0  0  0  0  0  0  0  0
    1.6857    1.1232    0.7720 C   0  0  0  0  0  0  0  0  0  0  0  0
    0.1997   -2.1551   -0.1971 C   0  0  0  0  0  0  0  0  0  0  0  0
    1.2348   -2.7247   -0.9899 N   0  0  0  0  0  0  0  0  0  0  0  0
   -0.8674   -2.8774   -0.0534 N   0  0  0  0  0  0  0  0  0  0  0  0
  1  2  1  0
  2  3  2  0
  3  4  1  0
  4  5  1  6
  5  6  2  0
  6  7  1  0
  7  8  2  0
  8  9  1  0
  9 10  2  0
  4 11  1  0
 11 12  1  0
 12 13  2  0
 13 14  1  0
 14 15  2  0
 15 16  1  0
 16 17  1  0
 16 18  2  0
 11 19  1  0
 19 20  1  0
 19 21  2  0
 21  2  1  0
 10  5  1  0
 18 12  1  0
M  END
>  <zinc_id>  (1077) 
ZINC000017040301

>  <ortholog_name>  (1077) 
DRTS_PLAFK

>  <gene_name>  (1077) 
DRTS_PLAFK

>  <affinity>  (1077) 
6.51

>  <chembldocid>  (1077) 
17662

>  <title>  (1077) 
None

>  <reference.pubmed_id>  (1077) 
14736247

>  <reference.doi>  (1077) 
None

>  <reference.chembl_id>  (1077) 
CHEMBL1138835

>  <reference.journal>  (1077) 
J. Med. Chem.

>  <reference.year>  (1077) 
2004

$$$$

     RDKit          3D

 21 23  0  0  0  0  0  0  0  0999 V2000
   -3.1348   -3.2620    0.8437 N   0  0  0  0  0  0  0  0  0  0  0  0
   -1.9530   -2.4248    0.7036 C   0  0  0  0  0  0  0  0  0  0  0  0
   -1.8679   -1.3248    1.2283 N   0  0  0  0  0  0  0  0  0  0  0  0
   -0.7732   -0.2953    1.2291 C   0  0  2  0  0  0  0  0  0  0  0  0
   -1.4256    0.6390    0.1110 C   0  0  0  0  0  0  0  0  0  0  0  0
   -2.7633    0.9308    0.2562 C   0  0  0  0  0  0  0  0  0  0  0  0
   -3.4154    1.7457   -0.6705 C   0  0  0  0  0  0  0  0  0  0  0  0
   -2.6516    2.2256   -1.7123 C   0  0  0  0  0  0  0  0  0  0  0  0
   -1.3152    1.9276   -1.8479 C   0  0  0  0  0  0  0  0  0  0  0  0
   -0.7186    1.1190   -0.9064 C   0  0  0  0  0  0  0  0  0  0  0  0
    0.3419   -0.9030    0.3783 N   0  0  0  0  0  0  0  0  0  0  0  0
    1.4927   -0.1280    0.2215 C   0  0  0  0  0  0  0  0  0  0  0  0
    2.6001   -0.5528   -0.5316 C   0  0  0  0  0  0  0  0  0  0  0  0
    3.7332    0.1608   -0.7114 C   0  0  0  0  0  0  0  0  0  0  0  0
    3.8413    1.3963   -0.1280 C   0  0  0  0  0  0  0  0  0  0  0  0
    2.8049    1.8936    0.6281 C   0  0  0  0  0  0  0  0  0  0  0  0
    2.9517    3.4863    1.3765 Cl  0  0  0  0  0  0  0  0  0  0  0  0
    1.6857    1.1232    0.7720 C   0  0  0  0  0  0  0  0  0  0  0  0
    0.1997   -2.1551   -0.1971 C   0  0  0  0  0  0  0  0  0  0  0  0
    1.2348   -2.7247   -0.9899 N   0  0  0  0  0  0  0  0  0  0  0  0
   -0.8674   -2.8774   -0.0534 N   0  0  0  0  0  0  0  0  0  0  0  0
  1  2  1  0
  2  3  2  0
  3  4  1  0
  4  5  1  6
  5  6  2  0
  6  7  1  0
  7  8  2  0
  8  9  1  0
  9 10  2  0
  4 11  1  0
 11 12  1  0
 12 13  2  0
 13 14  1  0
 14 15  2  0
 15 16  1  0
 16 17  1  0
 16 18  2  0
 11 19  1  0
 19 20  1  0
 19 21  2  0
 21  2  1  0
 10  5  1  0
 18 12  1  0
M  END
>  <zinc_id>  (1078) 
ZINC000017040301

>  <ortholog_name>  (1078) 
DRTS_PLAFK

>  <gene_name>  (1078) 
DRTS_PLAFK

>  <affinity>  (1078) 
6.25

>  <chembldocid>  (1078) 
17662

>  <title>  (1078) 
None

>  <reference.pubmed_id>  (1078) 
14736247

>  <reference.doi>  (1078) 
None

>  <reference.chembl_id>  (1078) 
CHEMBL1138835

>  <reference.journal>  (1078) 
J. Med. Chem.

>  <reference.year>  (1078) 
2004

$$$$

     RDKit          3D

 21 23  0  0  0  0  0  0  0  0999 V2000
   -3.1348   -3.2620    0.8437 N   0  0  0  0  0  0  0  0  0  0  0  0
   -1.9530   -2.4248    0.7036 C   0  0  0  0  0  0  0  0  0  0  0  0
   -1.8679   -1.3248    1.2283 N   0  0  0  0  0  0  0  0  0  0  0  0
   -0.7732   -0.2953    1.2291 C   0  0  2  0  0  0  0  0  0  0  0  0
   -1.4256    0.6390    0.1110 C   0  0  0  0  0  0  0  0  0  0  0  0
   -2.7633    0.9308    0.2562 C   0  0  0  0  0  0  0  0  0  0  0  0
   -3.4154    1.7457   -0.6705 C   0  0  0  0  0  0  0  0  0  0  0  0
   -2.6516    2.2256   -1.7123 C   0  0  0  0  0  0  0  0  0  0  0  0
   -1.3152    1.9276   -1.8479 C   0  0  0  0  0  0  0  0  0  0  0  0
   -0.7186    1.1190   -0.9064 C   0  0  0  0  0  0  0  0  0  0  0  0
    0.3419   -0.9030    0.3783 N   0  0  0  0  0  0  0  0  0  0  0  0
    1.4927   -0.1280    0.2215 C   0  0  0  0  0  0  0  0  0  0  0  0
    2.6001   -0.5528   -0.5316 C   0  0  0  0  0  0  0  0  0  0  0  0
    3.7332    0.1608   -0.7114 C   0  0  0  0  0  0  0  0  0  0  0  0
    3.8413    1.3963   -0.1280 C   0  0  0  0  0  0  0  0  0  0  0  0
    2.8049    1.8936    0.6281 C   0  0  0  0  0  0  0  0  0  0  0  0
    2.9517    3.4863    1.3765 Cl  0  0  0  0  0  0  0  0  0  0  0  0
    1.6857    1.1232    0.7720 C   0  0  0  0  0  0  0  0  0  0  0  0
    0.1997   -2.1551   -0.1971 C   0  0  0  0  0  0  0  0  0  0  0  0
    1.2348   -2.7247   -0.9899 N   0  0  0  0  0  0  0  0  0  0  0  0
   -0.8674   -2.8774   -0.0534 N   0  0  0  0  0  0  0  0  0  0  0  0
  1  2  1  0
  2  3  2  0
  3  4  1  0
  4  5  1  6
  5  6  2  0
  6  7  1  0
  7  8  2  0
  8  9  1  0
  9 10  2  0
  4 11  1  0
 11 12  1  0
 12 13  2  0
 13 14  1  0
 14 15  2  0
 15 16  1  0
 16 17  1  0
 16 18  2  0
 11 19  1  0
 19 20  1  0
 19 21  2  0
 21  2  1  0
 10  5  1  0
 18 12  1  0
M  END
>  <zinc_id>  (1079) 
ZINC000017040301

>  <ortholog_name>  (1079) 
DRTS_PLAFK

>  <gene_name>  (1079) 
DRTS_PLAFK

>  <affinity>  (1079) 
6.10

>  <chembldocid>  (1079) 
17662

>  <title>  (1079) 
None

>  <reference.pubmed_id>  (1079) 
14736247

>  <reference.doi>  (1079) 
None

>  <reference.chembl_id>  (1079) 
CHEMBL1138835

>  <reference.journal>  (1079) 
J. Med. Chem.

>  <reference.year>  (1079) 
2004

$$$$

     RDKit          3D

 21 23  0  0  0  0  0  0  0  0999 V2000
   -3.1348   -3.2620    0.8437 N   0  0  0  0  0  0  0  0  0  0  0  0
   -1.9530   -2.4248    0.7036 C   0  0  0  0  0  0  0  0  0  0  0  0
   -1.8679   -1.3248    1.2283 N   0  0  0  0  0  0  0  0  0  0  0  0
   -0.7732   -0.2953    1.2291 C   0  0  2  0  0  0  0  0  0  0  0  0
   -1.4256    0.6390    0.1110 C   0  0  0  0  0  0  0  0  0  0  0  0
   -2.7633    0.9308    0.2562 C   0  0  0  0  0  0  0  0  0  0  0  0
   -3.4154    1.7457   -0.6705 C   0  0  0  0  0  0  0  0  0  0  0  0
   -2.6516    2.2256   -1.7123 C   0  0  0  0  0  0  0  0  0  0  0  0
   -1.3152    1.9276   -1.8479 C   0  0  0  0  0  0  0  0  0  0  0  0
   -0.7186    1.1190   -0.9064 C   0  0  0  0  0  0  0  0  0  0  0  0
    0.3419   -0.9030    0.3783 N   0  0  0  0  0  0  0  0  0  0  0  0
    1.4927   -0.1280    0.2215 C   0  0  0  0  0  0  0  0  0  0  0  0
    2.6001   -0.5528   -0.5316 C   0  0  0  0  0  0  0  0  0  0  0  0
    3.7332    0.1608   -0.7114 C   0  0  0  0  0  0  0  0  0  0  0  0
    3.8413    1.3963   -0.1280 C   0  0  0  0  0  0  0  0  0  0  0  0
    2.8049    1.8936    0.6281 C   0  0  0  0  0  0  0  0  0  0  0  0
    2.9517    3.4863    1.3765 Cl  0  0  0  0  0  0  0  0  0  0  0  0
    1.6857    1.1232    0.7720 C   0  0  0  0  0  0  0  0  0  0  0  0
    0.1997   -2.1551   -0.1971 C   0  0  0  0  0  0  0  0  0  0  0  0
    1.2348   -2.7247   -0.9899 N   0  0  0  0  0  0  0  0  0  0  0  0
   -0.8674   -2.8774   -0.0534 N   0  0  0  0  0  0  0  0  0  0  0  0
  1  2  1  0
  2  3  2  0
  3  4  1  0
  4  5  1  6
  5  6  2  0
  6  7  1  0
  7  8  2  0
  8  9  1  0
  9 10  2  0
  4 11  1  0
 11 12  1  0
 12 13  2  0
 13 14  1  0
 14 15  2  0
 15 16  1  0
 16 17  1  0
 16 18  2  0
 11 19  1  0
 19 20  1  0
 19 21  2  0
 21  2  1  0
 10  5  1  0
 18 12  1  0
M  END
>  <zinc_id>  (1080) 
ZINC000017040301

>  <ortholog_name>  (1080) 
DRTS_PLAFK

>  <gene_name>  (1080) 
DRTS_PLAFK

>  <affinity>  (1080) 
6.01

>  <chembldocid>  (1080) 
17662

>  <title>  (1080) 
None

>  <reference.pubmed_id>  (1080) 
14736247

>  <reference.doi>  (1080) 
None

>  <reference.chembl_id>  (1080) 
CHEMBL1138835

>  <reference.journal>  (1080) 
J. Med. Chem.

>  <reference.year>  (1080) 
2004

$$$$

     RDKit          3D

 17 18  0  0  0  0  0  0  0  0999 V2000
    5.0120   -1.2002   -0.0142 C   0  0  0  0  0  0  0  0  0  0  0  0
    3.5730   -0.8330    0.0308 C   0  0  0  0  0  0  0  0  0  0  0  0
    2.8743   -0.7637    1.2176 C   0  0  0  0  0  0  0  0  0  0  0  0
    1.5335   -0.4189    1.2311 C   0  0  0  0  0  0  0  0  0  0  0  0
    0.8401   -0.1322    0.0790 C   0  0  0  0  0  0  0  0  0  0  0  0
   -0.5750    0.2288    0.1242 N   0  0  0  0  0  0  0  0  0  0  0  0
   -0.9271    1.5891    0.2568 C   0  0  0  0  0  0  0  0  0  0  0  0
    0.1374    2.5523    0.3407 N   0  0  0  0  0  0  0  0  0  0  0  0
   -2.1547    1.9333    0.2989 N   0  0  0  0  0  0  0  0  0  0  0  0
   -3.1851    0.9308    0.2110 C   0  0  0  0  0  0  0  0  0  0  0  0
   -4.5593    1.2822    0.2550 N   0  0  0  0  0  0  0  0  0  0  0  0
   -2.8730   -0.3061    0.0905 N   0  0  0  0  0  0  0  0  0  0  0  0
   -1.5568   -0.8057    0.0329 C   0  0  0  0  0  0  0  0  0  0  0  0
   -1.2886   -1.5220   -1.3069 C   0  0  0  0  0  0  0  0  0  0  0  0
   -1.2571   -1.7899    1.1789 C   0  0  0  0  0  0  0  0  0  0  0  0
    1.5329   -0.2002   -1.1053 C   0  0  0  0  0  0  0  0  0  0  0  0
    2.8736   -0.5448   -1.1206 C   0  0  0  0  0  0  0  0  0  0  0  0
  1  2  1  0
  2  3  2  0
  3  4  1  0
  4  5  2  0
  5  6  1  0
  6  7  1  0
  7  8  1  0
  7  9  2  0
  9 10  1  0
 10 11  1  0
 10 12  2  0
 12 13  1  0
 13 14  1  0
 13 15  1  0
  5 16  1  0
 16 17  2  0
 17  2  1  0
 13  6  1  0
M  END
>  <zinc_id>  (1081) 
ZINC000017040529

>  <ortholog_name>  (1081) 
DRTS_PLAFK

>  <gene_name>  (1081) 
DRTS_PLAFK

>  <affinity>  (1081) 
8.80

>  <chembldocid>  (1081) 
21047

>  <title>  (1081) 
None

>  <reference.pubmed_id>  (1081) 
15293997

>  <reference.doi>  (1081) 
None

>  <reference.chembl_id>  (1081) 
CHEMBL1138679

>  <reference.journal>  (1081) 
J. Med. Chem.

>  <reference.year>  (1081) 
2004

$$$$

     RDKit          3D

 17 18  0  0  0  0  0  0  0  0999 V2000
    5.0120   -1.2002   -0.0142 C   0  0  0  0  0  0  0  0  0  0  0  0
    3.5730   -0.8330    0.0308 C   0  0  0  0  0  0  0  0  0  0  0  0
    2.8743   -0.7637    1.2176 C   0  0  0  0  0  0  0  0  0  0  0  0
    1.5335   -0.4189    1.2311 C   0  0  0  0  0  0  0  0  0  0  0  0
    0.8401   -0.1322    0.0790 C   0  0  0  0  0  0  0  0  0  0  0  0
   -0.5750    0.2288    0.1242 N   0  0  0  0  0  0  0  0  0  0  0  0
   -0.9271    1.5891    0.2568 C   0  0  0  0  0  0  0  0  0  0  0  0
    0.1374    2.5523    0.3407 N   0  0  0  0  0  0  0  0  0  0  0  0
   -2.1547    1.9333    0.2989 N   0  0  0  0  0  0  0  0  0  0  0  0
   -3.1851    0.9308    0.2110 C   0  0  0  0  0  0  0  0  0  0  0  0
   -4.5593    1.2822    0.2550 N   0  0  0  0  0  0  0  0  0  0  0  0
   -2.8730   -0.3061    0.0905 N   0  0  0  0  0  0  0  0  0  0  0  0
   -1.5568   -0.8057    0.0329 C   0  0  0  0  0  0  0  0  0  0  0  0
   -1.2886   -1.5220   -1.3069 C   0  0  0  0  0  0  0  0  0  0  0  0
   -1.2571   -1.7899    1.1789 C   0  0  0  0  0  0  0  0  0  0  0  0
    1.5329   -0.2002   -1.1053 C   0  0  0  0  0  0  0  0  0  0  0  0
    2.8736   -0.5448   -1.1206 C   0  0  0  0  0  0  0  0  0  0  0  0
  1  2  1  0
  2  3  2  0
  3  4  1  0
  4  5  2  0
  5  6  1  0
  6  7  1  0
  7  8  1  0
  7  9  2  0
  9 10  1  0
 10 11  1  0
 10 12  2  0
 12 13  1  0
 13 14  1  0
 13 15  1  0
  5 16  1  0
 16 17  2  0
 17  2  1  0
 13  6  1  0
M  END
>  <zinc_id>  (1082) 
ZINC000017040529

>  <ortholog_name>  (1082) 
DRTS_PLAFK

>  <gene_name>  (1082) 
DRTS_PLAFK

>  <affinity>  (1082) 
8.74

>  <chembldocid>  (1082) 
15522

>  <title>  (1082) 
None

>  <reference.pubmed_id>  (1082) 
10893311

>  <reference.doi>  (1082) 
None

>  <reference.chembl_id>  (1082) 
CHEMBL1133696

>  <reference.journal>  (1082) 
J. Med. Chem.

>  <reference.year>  (1082) 
2000

$$$$

     RDKit          3D

 17 18  0  0  0  0  0  0  0  0999 V2000
    5.0120   -1.2002   -0.0142 C   0  0  0  0  0  0  0  0  0  0  0  0
    3.5730   -0.8330    0.0308 C   0  0  0  0  0  0  0  0  0  0  0  0
    2.8743   -0.7637    1.2176 C   0  0  0  0  0  0  0  0  0  0  0  0
    1.5335   -0.4189    1.2311 C   0  0  0  0  0  0  0  0  0  0  0  0
    0.8401   -0.1322    0.0790 C   0  0  0  0  0  0  0  0  0  0  0  0
   -0.5750    0.2288    0.1242 N   0  0  0  0  0  0  0  0  0  0  0  0
   -0.9271    1.5891    0.2568 C   0  0  0  0  0  0  0  0  0  0  0  0
    0.1374    2.5523    0.3407 N   0  0  0  0  0  0  0  0  0  0  0  0
   -2.1547    1.9333    0.2989 N   0  0  0  0  0  0  0  0  0  0  0  0
   -3.1851    0.9308    0.2110 C   0  0  0  0  0  0  0  0  0  0  0  0
   -4.5593    1.2822    0.2550 N   0  0  0  0  0  0  0  0  0  0  0  0
   -2.8730   -0.3061    0.0905 N   0  0  0  0  0  0  0  0  0  0  0  0
   -1.5568   -0.8057    0.0329 C   0  0  0  0  0  0  0  0  0  0  0  0
   -1.2886   -1.5220   -1.3069 C   0  0  0  0  0  0  0  0  0  0  0  0
   -1.2571   -1.7899    1.1789 C   0  0  0  0  0  0  0  0  0  0  0  0
    1.5329   -0.2002   -1.1053 C   0  0  0  0  0  0  0  0  0  0  0  0
    2.8736   -0.5448   -1.1206 C   0  0  0  0  0  0  0  0  0  0  0  0
  1  2  1  0
  2  3  2  0
  3  4  1  0
  4  5  2  0
  5  6  1  0
  6  7  1  0
  7  8  1  0
  7  9  2  0
  9 10  1  0
 10 11  1  0
 10 12  2  0
 12 13  1  0
 13 14  1  0
 13 15  1  0
  5 16  1  0
 16 17  2  0
 17  2  1  0
 13  6  1  0
M  END
>  <zinc_id>  (1083) 
ZINC000017040529

>  <ortholog_name>  (1083) 
DRTS_PLAFK

>  <gene_name>  (1083) 
DRTS_PLAFK

>  <affinity>  (1083) 
5.80

>  <chembldocid>  (1083) 
15522

>  <title>  (1083) 
None

>  <reference.pubmed_id>  (1083) 
10893311

>  <reference.doi>  (1083) 
None

>  <reference.chembl_id>  (1083) 
CHEMBL1133696

>  <reference.journal>  (1083) 
J. Med. Chem.

>  <reference.year>  (1083) 
2000

$$$$

     RDKit          3D

 17 18  0  0  0  0  0  0  0  0999 V2000
   -1.1947   -0.3353   -2.2775 C   0  0  0  0  0  0  0  0  0  0  0  0
   -1.4198   -0.7202   -0.8135 C   0  0  0  0  0  0  0  0  0  0  0  0
   -1.0618   -2.1874   -0.6315 C   0  0  0  0  0  0  0  0  0  0  0  0
   -2.8098   -0.5136   -0.4750 N   0  0  0  0  0  0  0  0  0  0  0  0
   -3.2553    0.2854    0.4086 C   0  0  0  0  0  0  0  0  0  0  0  0
   -4.6585    0.3596    0.6082 N   0  0  0  0  0  0  0  0  0  0  0  0
   -2.3563    1.0677    1.1586 N   0  0  0  0  0  0  0  0  0  0  0  0
   -1.1002    0.9823    0.9598 C   0  0  0  0  0  0  0  0  0  0  0  0
   -0.1813    1.7758    1.7199 N   0  0  0  0  0  0  0  0  0  0  0  0
   -0.5426    0.1081   -0.0130 N   0  0  0  0  0  0  0  0  0  0  0  0
    0.8624    0.0268   -0.2203 C   0  0  0  0  0  0  0  0  0  0  0  0
    1.5404    0.8219   -1.1230 C   0  0  0  0  0  0  0  0  0  0  0  0
    2.9165    0.7136   -1.2985 C   0  0  0  0  0  0  0  0  0  0  0  0
    3.6636   -0.1924   -0.5788 C   0  0  0  0  0  0  0  0  0  0  0  0
    5.0002   -0.3294   -0.7186 F   0  0  0  0  0  0  0  0  0  0  0  0
    2.9819   -0.9835    0.3208 C   0  0  0  0  0  0  0  0  0  0  0  0
    1.6154   -0.8792    0.4981 C   0  0  0  0  0  0  0  0  0  0  0  0
  1  2  1  0
  2  3  1  0
  2  4  1  0
  4  5  2  0
  5  6  1  0
  5  7  1  0
  7  8  2  0
  8  9  1  0
  8 10  1  0
 10 11  1  0
 11 12  2  0
 12 13  1  0
 13 14  2  0
 14 15  1  0
 14 16  1  0
 16 17  2  0
 10  2  1  0
 17 11  1  0
M  END
>  <zinc_id>  (1084) 
ZINC000017126763

>  <ortholog_name>  (1084) 
DRTS_PLAFK

>  <gene_name>  (1084) 
DRTS_PLAFK

>  <affinity>  (1084) 
5.79

>  <chembldocid>  (1084) 
15522

>  <title>  (1084) 
None

>  <reference.pubmed_id>  (1084) 
10893311

>  <reference.doi>  (1084) 
None

>  <reference.chembl_id>  (1084) 
CHEMBL1133696

>  <reference.journal>  (1084) 
J. Med. Chem.

>  <reference.year>  (1084) 
2000

$$$$

     RDKit          3D

 17 18  0  0  0  0  0  0  0  0999 V2000
   -1.1947   -0.3353   -2.2775 C   0  0  0  0  0  0  0  0  0  0  0  0
   -1.4198   -0.7202   -0.8135 C   0  0  0  0  0  0  0  0  0  0  0  0
   -1.0618   -2.1874   -0.6315 C   0  0  0  0  0  0  0  0  0  0  0  0
   -2.8098   -0.5136   -0.4750 N   0  0  0  0  0  0  0  0  0  0  0  0
   -3.2553    0.2854    0.4086 C   0  0  0  0  0  0  0  0  0  0  0  0
   -4.6585    0.3596    0.6082 N   0  0  0  0  0  0  0  0  0  0  0  0
   -2.3563    1.0677    1.1586 N   0  0  0  0  0  0  0  0  0  0  0  0
   -1.1002    0.9823    0.9598 C   0  0  0  0  0  0  0  0  0  0  0  0
   -0.1813    1.7758    1.7199 N   0  0  0  0  0  0  0  0  0  0  0  0
   -0.5426    0.1081   -0.0130 N   0  0  0  0  0  0  0  0  0  0  0  0
    0.8624    0.0268   -0.2203 C   0  0  0  0  0  0  0  0  0  0  0  0
    1.5404    0.8219   -1.1230 C   0  0  0  0  0  0  0  0  0  0  0  0
    2.9165    0.7136   -1.2985 C   0  0  0  0  0  0  0  0  0  0  0  0
    3.6636   -0.1924   -0.5788 C   0  0  0  0  0  0  0  0  0  0  0  0
    5.0002   -0.3294   -0.7186 F   0  0  0  0  0  0  0  0  0  0  0  0
    2.9819   -0.9835    0.3208 C   0  0  0  0  0  0  0  0  0  0  0  0
    1.6154   -0.8792    0.4981 C   0  0  0  0  0  0  0  0  0  0  0  0
  1  2  1  0
  2  3  1  0
  2  4  1  0
  4  5  2  0
  5  6  1  0
  5  7  1  0
  7  8  2  0
  8  9  1  0
  8 10  1  0
 10 11  1  0
 11 12  2  0
 12 13  1  0
 13 14  2  0
 14 15  1  0
 14 16  1  0
 16 17  2  0
 10  2  1  0
 17 11  1  0
M  END
>  <zinc_id>  (1085) 
ZINC000017126763

>  <ortholog_name>  (1085) 
DRTS_PLAFK

>  <gene_name>  (1085) 
DRTS_PLAFK

>  <affinity>  (1085) 
6.77

>  <chembldocid>  (1085) 
21047

>  <title>  (1085) 
None

>  <reference.pubmed_id>  (1085) 
15293997

>  <reference.doi>  (1085) 
None

>  <reference.chembl_id>  (1085) 
CHEMBL1138679

>  <reference.journal>  (1085) 
J. Med. Chem.

>  <reference.year>  (1085) 
2004

$$$$

     RDKit          3D

 17 18  0  0  0  0  0  0  0  0999 V2000
   -1.1947   -0.3353   -2.2775 C   0  0  0  0  0  0  0  0  0  0  0  0
   -1.4198   -0.7202   -0.8135 C   0  0  0  0  0  0  0  0  0  0  0  0
   -1.0618   -2.1874   -0.6315 C   0  0  0  0  0  0  0  0  0  0  0  0
   -2.8098   -0.5136   -0.4750 N   0  0  0  0  0  0  0  0  0  0  0  0
   -3.2553    0.2854    0.4086 C   0  0  0  0  0  0  0  0  0  0  0  0
   -4.6585    0.3596    0.6082 N   0  0  0  0  0  0  0  0  0  0  0  0
   -2.3563    1.0677    1.1586 N   0  0  0  0  0  0  0  0  0  0  0  0
   -1.1002    0.9823    0.9598 C   0  0  0  0  0  0  0  0  0  0  0  0
   -0.1813    1.7758    1.7199 N   0  0  0  0  0  0  0  0  0  0  0  0
   -0.5426    0.1081   -0.0130 N   0  0  0  0  0  0  0  0  0  0  0  0
    0.8624    0.0268   -0.2203 C   0  0  0  0  0  0  0  0  0  0  0  0
    1.5404    0.8219   -1.1230 C   0  0  0  0  0  0  0  0  0  0  0  0
    2.9165    0.7136   -1.2985 C   0  0  0  0  0  0  0  0  0  0  0  0
    3.6636   -0.1924   -0.5788 C   0  0  0  0  0  0  0  0  0  0  0  0
    5.0002   -0.3294   -0.7186 F   0  0  0  0  0  0  0  0  0  0  0  0
    2.9819   -0.9835    0.3208 C   0  0  0  0  0  0  0  0  0  0  0  0
    1.6154   -0.8792    0.4981 C   0  0  0  0  0  0  0  0  0  0  0  0
  1  2  1  0
  2  3  1  0
  2  4  1  0
  4  5  2  0
  5  6  1  0
  5  7  1  0
  7  8  2  0
  8  9  1  0
  8 10  1  0
 10 11  1  0
 11 12  2  0
 12 13  1  0
 13 14  2  0
 14 15  1  0
 14 16  1  0
 16 17  2  0
 10  2  1  0
 17 11  1  0
M  END
>  <zinc_id>  (1086) 
ZINC000017126763

>  <ortholog_name>  (1086) 
DRTS_PLAFK

>  <gene_name>  (1086) 
DRTS_PLAFK

>  <affinity>  (1086) 
8.34

>  <chembldocid>  (1086) 
15522

>  <title>  (1086) 
None

>  <reference.pubmed_id>  (1086) 
10893311

>  <reference.doi>  (1086) 
None

>  <reference.chembl_id>  (1086) 
CHEMBL1133696

>  <reference.journal>  (1086) 
J. Med. Chem.

>  <reference.year>  (1086) 
2000

$$$$

     RDKit          3D

 17 18  0  0  0  0  0  0  0  0999 V2000
    1.4062   -0.0382    2.4482 C   0  0  0  0  0  0  0  0  0  0  0  0
    1.7895   -0.7889    0.9941 C   0  0  2  0  0  0  0  0  0  0  0  0
    3.1491   -0.2785    0.8257 N   0  0  0  0  0  0  0  0  0  0  0  0
    3.4978    0.6303    0.0649 C   0  0  0  0  0  0  0  0  0  0  0  0
    4.9259    0.9734    0.0661 N   0  0  0  0  0  0  0  0  0  0  0  0
    2.6290    1.3616   -0.8029 N   0  0  0  0  0  0  0  0  0  0  0  0
    1.3957    0.9717   -0.7175 C   0  0  0  0  0  0  0  0  0  0  0  0
    0.3880    1.6286   -1.5476 N   0  0  0  0  0  0  0  0  0  0  0  0
    0.8663   -0.0275    0.0866 N   0  0  0  0  0  0  0  0  0  0  0  0
   -0.5200   -0.3278    0.0555 C   0  0  0  0  0  0  0  0  0  0  0  0
   -0.9921   -1.3265    0.8717 C   0  0  0  0  0  0  0  0  0  0  0  0
   -2.3462   -1.6732    0.8905 C   0  0  0  0  0  0  0  0  0  0  0  0
   -3.2227   -0.9930    0.0683 C   0  0  0  0  0  0  0  0  0  0  0  0
   -4.9405   -1.3477    0.0138 Cl  0  0  0  0  0  0  0  0  0  0  0  0
   -2.7742    0.0139   -0.7607 C   0  0  0  0  0  0  0  0  0  0  0  0
   -3.8080    0.9188   -1.8251 Cl  0  0  0  0  0  0  0  0  0  0  0  0
   -1.4437    0.3029   -0.7315 C   0  0  0  0  0  0  0  0  0  0  0  0
  2  1  1  1
  2  3  1  0
  3  4  2  0
  4  5  1  0
  4  6  1  0
  6  7  2  0
  7  8  1  0
  7  9  1  0
  9 10  1  0
 10 11  2  0
 11 12  1  0
 12 13  2  0
 13 14  1  0
 13 15  1  0
 15 16  1  0
 15 17  2  0
  9  2  1  0
 17 10  1  0
M  END
>  <zinc_id>  (1087) 
ZINC000017353521

>  <ortholog_name>  (1087) 
DRTS_PLAFK

>  <gene_name>  (1087) 
DRTS_PLAFK

>  <affinity>  (1087) 
8.85

>  <chembldocid>  (1087) 
15522

>  <title>  (1087) 
None

>  <reference.pubmed_id>  (1087) 
10893311

>  <reference.doi>  (1087) 
None

>  <reference.chembl_id>  (1087) 
CHEMBL1133696

>  <reference.journal>  (1087) 
J. Med. Chem.

>  <reference.year>  (1087) 
2000

$$$$

     RDKit          3D

 17 18  0  0  0  0  0  0  0  0999 V2000
    1.4062   -0.0382    2.4482 C   0  0  0  0  0  0  0  0  0  0  0  0
    1.7895   -0.7889    0.9941 C   0  0  2  0  0  0  0  0  0  0  0  0
    3.1491   -0.2785    0.8257 N   0  0  0  0  0  0  0  0  0  0  0  0
    3.4978    0.6303    0.0649 C   0  0  0  0  0  0  0  0  0  0  0  0
    4.9259    0.9734    0.0661 N   0  0  0  0  0  0  0  0  0  0  0  0
    2.6290    1.3616   -0.8029 N   0  0  0  0  0  0  0  0  0  0  0  0
    1.3957    0.9717   -0.7175 C   0  0  0  0  0  0  0  0  0  0  0  0
    0.3880    1.6286   -1.5476 N   0  0  0  0  0  0  0  0  0  0  0  0
    0.8663   -0.0275    0.0866 N   0  0  0  0  0  0  0  0  0  0  0  0
   -0.5200   -0.3278    0.0555 C   0  0  0  0  0  0  0  0  0  0  0  0
   -0.9921   -1.3265    0.8717 C   0  0  0  0  0  0  0  0  0  0  0  0
   -2.3462   -1.6732    0.8905 C   0  0  0  0  0  0  0  0  0  0  0  0
   -3.2227   -0.9930    0.0683 C   0  0  0  0  0  0  0  0  0  0  0  0
   -4.9405   -1.3477    0.0138 Cl  0  0  0  0  0  0  0  0  0  0  0  0
   -2.7742    0.0139   -0.7607 C   0  0  0  0  0  0  0  0  0  0  0  0
   -3.8080    0.9188   -1.8251 Cl  0  0  0  0  0  0  0  0  0  0  0  0
   -1.4437    0.3029   -0.7315 C   0  0  0  0  0  0  0  0  0  0  0  0
  2  1  1  1
  2  3  1  0
  3  4  2  0
  4  5  1  0
  4  6  1  0
  6  7  2  0
  7  8  1  0
  7  9  1  0
  9 10  1  0
 10 11  2  0
 11 12  1  0
 12 13  2  0
 13 14  1  0
 13 15  1  0
 15 16  1  0
 15 17  2  0
  9  2  1  0
 17 10  1  0
M  END
>  <zinc_id>  (1088) 
ZINC000017353521

>  <ortholog_name>  (1088) 
DRTS_PLAFK

>  <gene_name>  (1088) 
DRTS_PLAFK

>  <affinity>  (1088) 
7.75

>  <chembldocid>  (1088) 
15522

>  <title>  (1088) 
None

>  <reference.pubmed_id>  (1088) 
10893311

>  <reference.doi>  (1088) 
None

>  <reference.chembl_id>  (1088) 
CHEMBL1133696

>  <reference.journal>  (1088) 
J. Med. Chem.

>  <reference.year>  (1088) 
2000

$$$$

     RDKit          3D

 12 12  0  0  0  0  0  0  0  0999 V2000
    4.5947    0.4456    0.6542 N   0  0  0  0  0  0  0  0  0  0  0  0
    3.1862    0.2093    0.4906 C   0  0  0  0  0  0  0  0  0  0  0  0
    2.5675   -0.7620   -0.8759 S   0  0  0  0  0  0  0  0  0  0  0  0
    2.3101    0.6821    1.3138 N   0  0  0  0  0  0  0  0  0  0  0  0
    0.9240    0.4332    1.1286 N   0  0  0  0  0  0  0  0  0  0  0  0
    0.4101    0.2809   -0.0197 C   0  0  0  0  0  0  0  0  0  0  0  0
   -0.9880    0.0253   -0.2897 C   0  0  0  0  0  0  0  0  0  0  0  0
   -1.4993   -0.1323   -1.5423 C   0  0  0  0  0  0  0  0  0  0  0  0
   -2.8340   -0.3712   -1.7062 C   0  0  0  0  0  0  0  0  0  0  0  0
   -3.6564   -0.4519   -0.6121 C   0  0  0  0  0  0  0  0  0  0  0  0
   -3.1833   -0.2990    0.6725 C   0  0  0  0  0  0  0  0  0  0  0  0
   -1.8316   -0.0601    0.7862 C   0  0  0  0  0  0  0  0  0  0  0  0
  1  2  1  0
  2  3  1  0
  2  4  2  0
  4  5  1  0
  5  6  2  0
  6  7  1  0
  7  8  2  0
  8  9  1  0
  9 10  2  0
 10 11  1  0
 11 12  2  0
 12  7  1  0
M  END
>  <zinc_id>  (1089) 
ZINC000017949002

>  <ortholog_name>  (1089) 
DRTS_PLAFK

>  <gene_name>  (1089) 
DRTS_PLAFK

>  <affinity>  (1089) 
5.05

>  <chembldocid>  (1089) 
17071

>  <title>  (1089) 
None

>  <reference.pubmed_id>  (1089) 
12825927

>  <reference.doi>  (1089) 
None

>  <reference.chembl_id>  (1089) 
CHEMBL1145823

>  <reference.journal>  (1089) 
J. Med. Chem.

>  <reference.year>  (1089) 
2003

$$$$

     RDKit          3D

 35 38  0  0  0  0  0  0  0  0999 V2000
   -5.0801   -4.0873   -1.8673 N   0  0  0  0  0  0  0  0  0  0  0  0
   -4.6926   -2.9937   -0.9518 C   0  0  0  0  0  0  0  0  0  0  0  0
   -4.2053   -3.2646    0.1550 N   0  0  0  0  0  0  0  0  0  0  0  0
   -3.7723   -2.2628    1.1477 C   0  0  1  0  0  0  0  0  0  0  0  0
   -2.2095   -2.2405    0.9156 C   0  0  0  0  0  0  0  0  0  0  0  0
   -1.5361   -3.4183    0.8110 C   0  0  0  0  0  0  0  0  0  0  0  0
   -0.1406   -3.4391    0.5990 C   0  0  0  0  0  0  0  0  0  0  0  0
    0.5183   -2.2139    0.5014 C   0  0  0  0  0  0  0  0  0  0  0  0
   -0.1634   -1.0304    0.6073 C   0  0  0  0  0  0  0  0  0  0  0  0
    0.4940    0.1696    0.5099 O   0  0  0  0  0  0  0  0  0  0  0  0
    1.8898    0.2504    0.2981 C   0  0  0  0  0  0  0  0  0  0  0  0
    2.1734   -0.4560   -1.0345 C   0  0  0  0  0  0  0  0  0  0  0  0
    3.6725   -0.4054   -1.3263 C   0  0  0  0  0  0  0  0  0  0  0  0
    4.0288    0.9454   -1.3955 O   0  0  0  0  0  0  0  0  0  0  0  0
    5.2867    1.4245   -1.6404 C   0  0  0  0  0  0  0  0  0  0  0  0
    6.3653    0.6060   -1.8505 C   0  0  0  0  0  0  0  0  0  0  0  0
    7.6143    1.1682   -2.0936 C   0  0  0  0  0  0  0  0  0  0  0  0
    8.9924    0.1396   -2.3622 Cl  0  0  0  0  0  0  0  0  0  0  0  0
    7.8073    2.5356   -2.1310 C   0  0  0  0  0  0  0  0  0  0  0  0
    9.3851    3.2529   -2.4381 Cl  0  0  0  0  0  0  0  0  0  0  0  0
    6.7107    3.3348   -1.9174 C   0  0  0  0  0  0  0  0  0  0  0  0
    5.4859    2.7892   -1.6790 C   0  0  0  0  0  0  0  0  0  0  0  0
    4.1195    3.8549   -1.4128 Cl  0  0  0  0  0  0  0  0  0  0  0  0
   -1.5561   -1.0590    0.8188 C   0  0  0  0  0  0  0  0  0  0  0  0
   -4.2323   -0.9156    0.7089 N   0  0  0  0  0  0  0  0  0  0  0  0
   -4.1685    0.1998    1.5974 C   0  0  0  0  0  0  0  0  0  0  0  0
   -3.1479    1.1057    1.7125 C   0  0  0  0  0  0  0  0  0  0  0  0
   -3.2197    2.1410    2.6192 C   0  0  0  0  0  0  0  0  0  0  0  0
   -4.3024    2.3313    3.4553 C   0  0  0  0  0  0  0  0  0  0  0  0
   -5.3221    1.4074    3.3245 C   0  0  0  0  0  0  0  0  0  0  0  0
   -6.7604    1.5510    4.3443 Cl  0  0  0  0  0  0  0  0  0  0  0  0
   -5.2421    0.3739    2.4142 C   0  0  0  0  0  0  0  0  0  0  0  0
   -4.7543   -0.7538   -0.5614 C   0  0  0  0  0  0  0  0  0  0  0  0
   -5.0256    0.6408   -0.9240 N   0  0  0  0  0  0  0  0  0  0  0  0
   -5.0128   -1.6816   -1.4244 N   0  0  0  0  0  0  0  0  0  0  0  0
  1  2  1  0
  2  3  2  0
  3  4  1  0
  4  5  1  6
  5  6  2  0
  6  7  1  0
  7  8  2  0
  8  9  1  0
  9 10  1  0
 10 11  1  0
 11 12  1  0
 12 13  1  0
 13 14  1  0
 14 15  1  0
 15 16  2  0
 16 17  1  0
 17 18  1  0
 17 19  2  0
 19 20  1  0
 19 21  1  0
 21 22  2  0
 22 23  1  0
  9 24  2  0
  4 25  1  0
 25 26  1  0
 26 27  2  0
 27 28  1  0
 28 29  2  0
 29 30  1  0
 30 31  1  0
 30 32  2  0
 25 33  1  0
 33 34  1  0
 33 35  2  0
 35  2  1  0
 24  5  1  0
 32 26  1  0
 22 15  1  0
M  END
>  <zinc_id>  (1090) 
ZINC000027732635

>  <ortholog_name>  (1090) 
DRTS_PLAFK

>  <gene_name>  (1090) 
DRTS_PLAFK

>  <affinity>  (1090) 
8.70

>  <chembldocid>  (1090) 
17662

>  <title>  (1090) 
None

>  <reference.pubmed_id>  (1090) 
14736247

>  <reference.doi>  (1090) 
None

>  <reference.chembl_id>  (1090) 
CHEMBL1138835

>  <reference.journal>  (1090) 
J. Med. Chem.

>  <reference.year>  (1090) 
2004

$$$$

     RDKit          3D

 35 38  0  0  0  0  0  0  0  0999 V2000
   -5.0801   -4.0873   -1.8673 N   0  0  0  0  0  0  0  0  0  0  0  0
   -4.6926   -2.9937   -0.9518 C   0  0  0  0  0  0  0  0  0  0  0  0
   -4.2053   -3.2646    0.1550 N   0  0  0  0  0  0  0  0  0  0  0  0
   -3.7723   -2.2628    1.1477 C   0  0  1  0  0  0  0  0  0  0  0  0
   -2.2095   -2.2405    0.9156 C   0  0  0  0  0  0  0  0  0  0  0  0
   -1.5361   -3.4183    0.8110 C   0  0  0  0  0  0  0  0  0  0  0  0
   -0.1406   -3.4391    0.5990 C   0  0  0  0  0  0  0  0  0  0  0  0
    0.5183   -2.2139    0.5014 C   0  0  0  0  0  0  0  0  0  0  0  0
   -0.1634   -1.0304    0.6073 C   0  0  0  0  0  0  0  0  0  0  0  0
    0.4940    0.1696    0.5099 O   0  0  0  0  0  0  0  0  0  0  0  0
    1.8898    0.2504    0.2981 C   0  0  0  0  0  0  0  0  0  0  0  0
    2.1734   -0.4560   -1.0345 C   0  0  0  0  0  0  0  0  0  0  0  0
    3.6725   -0.4054   -1.3263 C   0  0  0  0  0  0  0  0  0  0  0  0
    4.0288    0.9454   -1.3955 O   0  0  0  0  0  0  0  0  0  0  0  0
    5.2867    1.4245   -1.6404 C   0  0  0  0  0  0  0  0  0  0  0  0
    6.3653    0.6060   -1.8505 C   0  0  0  0  0  0  0  0  0  0  0  0
    7.6143    1.1682   -2.0936 C   0  0  0  0  0  0  0  0  0  0  0  0
    8.9924    0.1396   -2.3622 Cl  0  0  0  0  0  0  0  0  0  0  0  0
    7.8073    2.5356   -2.1310 C   0  0  0  0  0  0  0  0  0  0  0  0
    9.3851    3.2529   -2.4381 Cl  0  0  0  0  0  0  0  0  0  0  0  0
    6.7107    3.3348   -1.9174 C   0  0  0  0  0  0  0  0  0  0  0  0
    5.4859    2.7892   -1.6790 C   0  0  0  0  0  0  0  0  0  0  0  0
    4.1195    3.8549   -1.4128 Cl  0  0  0  0  0  0  0  0  0  0  0  0
   -1.5561   -1.0590    0.8188 C   0  0  0  0  0  0  0  0  0  0  0  0
   -4.2323   -0.9156    0.7089 N   0  0  0  0  0  0  0  0  0  0  0  0
   -4.1685    0.1998    1.5974 C   0  0  0  0  0  0  0  0  0  0  0  0
   -3.1479    1.1057    1.7125 C   0  0  0  0  0  0  0  0  0  0  0  0
   -3.2197    2.1410    2.6192 C   0  0  0  0  0  0  0  0  0  0  0  0
   -4.3024    2.3313    3.4553 C   0  0  0  0  0  0  0  0  0  0  0  0
   -5.3221    1.4074    3.3245 C   0  0  0  0  0  0  0  0  0  0  0  0
   -6.7604    1.5510    4.3443 Cl  0  0  0  0  0  0  0  0  0  0  0  0
   -5.2421    0.3739    2.4142 C   0  0  0  0  0  0  0  0  0  0  0  0
   -4.7543   -0.7538   -0.5614 C   0  0  0  0  0  0  0  0  0  0  0  0
   -5.0256    0.6408   -0.9240 N   0  0  0  0  0  0  0  0  0  0  0  0
   -5.0128   -1.6816   -1.4244 N   0  0  0  0  0  0  0  0  0  0  0  0
  1  2  1  0
  2  3  2  0
  3  4  1  0
  4  5  1  6
  5  6  2  0
  6  7  1  0
  7  8  2  0
  8  9  1  0
  9 10  1  0
 10 11  1  0
 11 12  1  0
 12 13  1  0
 13 14  1  0
 14 15  1  0
 15 16  2  0
 16 17  1  0
 17 18  1  0
 17 19  2  0
 19 20  1  0
 19 21  1  0
 21 22  2  0
 22 23  1  0
  9 24  2  0
  4 25  1  0
 25 26  1  0
 26 27  2  0
 27 28  1  0
 28 29  2  0
 29 30  1  0
 30 31  1  0
 30 32  2  0
 25 33  1  0
 33 34  1  0
 33 35  2  0
 35  2  1  0
 24  5  1  0
 32 26  1  0
 22 15  1  0
M  END
>  <zinc_id>  (1091) 
ZINC000027732635

>  <ortholog_name>  (1091) 
DRTS_PLAFK

>  <gene_name>  (1091) 
DRTS_PLAFK

>  <affinity>  (1091) 
8.66

>  <chembldocid>  (1091) 
17662

>  <title>  (1091) 
None

>  <reference.pubmed_id>  (1091) 
14736247

>  <reference.doi>  (1091) 
None

>  <reference.chembl_id>  (1091) 
CHEMBL1138835

>  <reference.journal>  (1091) 
J. Med. Chem.

>  <reference.year>  (1091) 
2004

$$$$

     RDKit          3D

 35 38  0  0  0  0  0  0  0  0999 V2000
   -5.0801   -4.0873   -1.8673 N   0  0  0  0  0  0  0  0  0  0  0  0
   -4.6926   -2.9937   -0.9518 C   0  0  0  0  0  0  0  0  0  0  0  0
   -4.2053   -3.2646    0.1550 N   0  0  0  0  0  0  0  0  0  0  0  0
   -3.7723   -2.2628    1.1477 C   0  0  1  0  0  0  0  0  0  0  0  0
   -2.2095   -2.2405    0.9156 C   0  0  0  0  0  0  0  0  0  0  0  0
   -1.5361   -3.4183    0.8110 C   0  0  0  0  0  0  0  0  0  0  0  0
   -0.1406   -3.4391    0.5990 C   0  0  0  0  0  0  0  0  0  0  0  0
    0.5183   -2.2139    0.5014 C   0  0  0  0  0  0  0  0  0  0  0  0
   -0.1634   -1.0304    0.6073 C   0  0  0  0  0  0  0  0  0  0  0  0
    0.4940    0.1696    0.5099 O   0  0  0  0  0  0  0  0  0  0  0  0
    1.8898    0.2504    0.2981 C   0  0  0  0  0  0  0  0  0  0  0  0
    2.1734   -0.4560   -1.0345 C   0  0  0  0  0  0  0  0  0  0  0  0
    3.6725   -0.4054   -1.3263 C   0  0  0  0  0  0  0  0  0  0  0  0
    4.0288    0.9454   -1.3955 O   0  0  0  0  0  0  0  0  0  0  0  0
    5.2867    1.4245   -1.6404 C   0  0  0  0  0  0  0  0  0  0  0  0
    6.3653    0.6060   -1.8505 C   0  0  0  0  0  0  0  0  0  0  0  0
    7.6143    1.1682   -2.0936 C   0  0  0  0  0  0  0  0  0  0  0  0
    8.9924    0.1396   -2.3622 Cl  0  0  0  0  0  0  0  0  0  0  0  0
    7.8073    2.5356   -2.1310 C   0  0  0  0  0  0  0  0  0  0  0  0
    9.3851    3.2529   -2.4381 Cl  0  0  0  0  0  0  0  0  0  0  0  0
    6.7107    3.3348   -1.9174 C   0  0  0  0  0  0  0  0  0  0  0  0
    5.4859    2.7892   -1.6790 C   0  0  0  0  0  0  0  0  0  0  0  0
    4.1195    3.8549   -1.4128 Cl  0  0  0  0  0  0  0  0  0  0  0  0
   -1.5561   -1.0590    0.8188 C   0  0  0  0  0  0  0  0  0  0  0  0
   -4.2323   -0.9156    0.7089 N   0  0  0  0  0  0  0  0  0  0  0  0
   -4.1685    0.1998    1.5974 C   0  0  0  0  0  0  0  0  0  0  0  0
   -3.1479    1.1057    1.7125 C   0  0  0  0  0  0  0  0  0  0  0  0
   -3.2197    2.1410    2.6192 C   0  0  0  0  0  0  0  0  0  0  0  0
   -4.3024    2.3313    3.4553 C   0  0  0  0  0  0  0  0  0  0  0  0
   -5.3221    1.4074    3.3245 C   0  0  0  0  0  0  0  0  0  0  0  0
   -6.7604    1.5510    4.3443 Cl  0  0  0  0  0  0  0  0  0  0  0  0
   -5.2421    0.3739    2.4142 C   0  0  0  0  0  0  0  0  0  0  0  0
   -4.7543   -0.7538   -0.5614 C   0  0  0  0  0  0  0  0  0  0  0  0
   -5.0256    0.6408   -0.9240 N   0  0  0  0  0  0  0  0  0  0  0  0
   -5.0128   -1.6816   -1.4244 N   0  0  0  0  0  0  0  0  0  0  0  0
  1  2  1  0
  2  3  2  0
  3  4  1  0
  4  5  1  6
  5  6  2  0
  6  7  1  0
  7  8  2  0
  8  9  1  0
  9 10  1  0
 10 11  1  0
 11 12  1  0
 12 13  1  0
 13 14  1  0
 14 15  1  0
 15 16  2  0
 16 17  1  0
 17 18  1  0
 17 19  2  0
 19 20  1  0
 19 21  1  0
 21 22  2  0
 22 23  1  0
  9 24  2  0
  4 25  1  0
 25 26  1  0
 26 27  2  0
 27 28  1  0
 28 29  2  0
 29 30  1  0
 30 31  1  0
 30 32  2  0
 25 33  1  0
 33 34  1  0
 33 35  2  0
 35  2  1  0
 24  5  1  0
 32 26  1  0
 22 15  1  0
M  END
>  <zinc_id>  (1092) 
ZINC000027732635

>  <ortholog_name>  (1092) 
DRTS_PLAFK

>  <gene_name>  (1092) 
DRTS_PLAFK

>  <affinity>  (1092) 
8.59

>  <chembldocid>  (1092) 
17662

>  <title>  (1092) 
None

>  <reference.pubmed_id>  (1092) 
14736247

>  <reference.doi>  (1092) 
None

>  <reference.chembl_id>  (1092) 
CHEMBL1138835

>  <reference.journal>  (1092) 
J. Med. Chem.

>  <reference.year>  (1092) 
2004

$$$$

     RDKit          3D

 35 38  0  0  0  0  0  0  0  0999 V2000
   -5.0801   -4.0873   -1.8673 N   0  0  0  0  0  0  0  0  0  0  0  0
   -4.6926   -2.9937   -0.9518 C   0  0  0  0  0  0  0  0  0  0  0  0
   -4.2053   -3.2646    0.1550 N   0  0  0  0  0  0  0  0  0  0  0  0
   -3.7723   -2.2628    1.1477 C   0  0  1  0  0  0  0  0  0  0  0  0
   -2.2095   -2.2405    0.9156 C   0  0  0  0  0  0  0  0  0  0  0  0
   -1.5361   -3.4183    0.8110 C   0  0  0  0  0  0  0  0  0  0  0  0
   -0.1406   -3.4391    0.5990 C   0  0  0  0  0  0  0  0  0  0  0  0
    0.5183   -2.2139    0.5014 C   0  0  0  0  0  0  0  0  0  0  0  0
   -0.1634   -1.0304    0.6073 C   0  0  0  0  0  0  0  0  0  0  0  0
    0.4940    0.1696    0.5099 O   0  0  0  0  0  0  0  0  0  0  0  0
    1.8898    0.2504    0.2981 C   0  0  0  0  0  0  0  0  0  0  0  0
    2.1734   -0.4560   -1.0345 C   0  0  0  0  0  0  0  0  0  0  0  0
    3.6725   -0.4054   -1.3263 C   0  0  0  0  0  0  0  0  0  0  0  0
    4.0288    0.9454   -1.3955 O   0  0  0  0  0  0  0  0  0  0  0  0
    5.2867    1.4245   -1.6404 C   0  0  0  0  0  0  0  0  0  0  0  0
    6.3653    0.6060   -1.8505 C   0  0  0  0  0  0  0  0  0  0  0  0
    7.6143    1.1682   -2.0936 C   0  0  0  0  0  0  0  0  0  0  0  0
    8.9924    0.1396   -2.3622 Cl  0  0  0  0  0  0  0  0  0  0  0  0
    7.8073    2.5356   -2.1310 C   0  0  0  0  0  0  0  0  0  0  0  0
    9.3851    3.2529   -2.4381 Cl  0  0  0  0  0  0  0  0  0  0  0  0
    6.7107    3.3348   -1.9174 C   0  0  0  0  0  0  0  0  0  0  0  0
    5.4859    2.7892   -1.6790 C   0  0  0  0  0  0  0  0  0  0  0  0
    4.1195    3.8549   -1.4128 Cl  0  0  0  0  0  0  0  0  0  0  0  0
   -1.5561   -1.0590    0.8188 C   0  0  0  0  0  0  0  0  0  0  0  0
   -4.2323   -0.9156    0.7089 N   0  0  0  0  0  0  0  0  0  0  0  0
   -4.1685    0.1998    1.5974 C   0  0  0  0  0  0  0  0  0  0  0  0
   -3.1479    1.1057    1.7125 C   0  0  0  0  0  0  0  0  0  0  0  0
   -3.2197    2.1410    2.6192 C   0  0  0  0  0  0  0  0  0  0  0  0
   -4.3024    2.3313    3.4553 C   0  0  0  0  0  0  0  0  0  0  0  0
   -5.3221    1.4074    3.3245 C   0  0  0  0  0  0  0  0  0  0  0  0
   -6.7604    1.5510    4.3443 Cl  0  0  0  0  0  0  0  0  0  0  0  0
   -5.2421    0.3739    2.4142 C   0  0  0  0  0  0  0  0  0  0  0  0
   -4.7543   -0.7538   -0.5614 C   0  0  0  0  0  0  0  0  0  0  0  0
   -5.0256    0.6408   -0.9240 N   0  0  0  0  0  0  0  0  0  0  0  0
   -5.0128   -1.6816   -1.4244 N   0  0  0  0  0  0  0  0  0  0  0  0
  1  2  1  0
  2  3  2  0
  3  4  1  0
  4  5  1  6
  5  6  2  0
  6  7  1  0
  7  8  2  0
  8  9  1  0
  9 10  1  0
 10 11  1  0
 11 12  1  0
 12 13  1  0
 13 14  1  0
 14 15  1  0
 15 16  2  0
 16 17  1  0
 17 18  1  0
 17 19  2  0
 19 20  1  0
 19 21  1  0
 21 22  2  0
 22 23  1  0
  9 24  2  0
  4 25  1  0
 25 26  1  0
 26 27  2  0
 27 28  1  0
 28 29  2  0
 29 30  1  0
 30 31  1  0
 30 32  2  0
 25 33  1  0
 33 34  1  0
 33 35  2  0
 35  2  1  0
 24  5  1  0
 32 26  1  0
 22 15  1  0
M  END
>  <zinc_id>  (1093) 
ZINC000027732635

>  <ortholog_name>  (1093) 
DRTS_PLAFK

>  <gene_name>  (1093) 
DRTS_PLAFK

>  <affinity>  (1093) 
5.52

>  <chembldocid>  (1093) 
17662

>  <title>  (1093) 
None

>  <reference.pubmed_id>  (1093) 
14736247

>  <reference.doi>  (1093) 
None

>  <reference.chembl_id>  (1093) 
CHEMBL1138835

>  <reference.journal>  (1093) 
J. Med. Chem.

>  <reference.year>  (1093) 
2004

$$$$

     RDKit          3D

 35 38  0  0  0  0  0  0  0  0999 V2000
   -5.0801   -4.0873   -1.8673 N   0  0  0  0  0  0  0  0  0  0  0  0
   -4.6926   -2.9937   -0.9518 C   0  0  0  0  0  0  0  0  0  0  0  0
   -4.2053   -3.2646    0.1550 N   0  0  0  0  0  0  0  0  0  0  0  0
   -3.7723   -2.2628    1.1477 C   0  0  1  0  0  0  0  0  0  0  0  0
   -2.2095   -2.2405    0.9156 C   0  0  0  0  0  0  0  0  0  0  0  0
   -1.5361   -3.4183    0.8110 C   0  0  0  0  0  0  0  0  0  0  0  0
   -0.1406   -3.4391    0.5990 C   0  0  0  0  0  0  0  0  0  0  0  0
    0.5183   -2.2139    0.5014 C   0  0  0  0  0  0  0  0  0  0  0  0
   -0.1634   -1.0304    0.6073 C   0  0  0  0  0  0  0  0  0  0  0  0
    0.4940    0.1696    0.5099 O   0  0  0  0  0  0  0  0  0  0  0  0
    1.8898    0.2504    0.2981 C   0  0  0  0  0  0  0  0  0  0  0  0
    2.1734   -0.4560   -1.0345 C   0  0  0  0  0  0  0  0  0  0  0  0
    3.6725   -0.4054   -1.3263 C   0  0  0  0  0  0  0  0  0  0  0  0
    4.0288    0.9454   -1.3955 O   0  0  0  0  0  0  0  0  0  0  0  0
    5.2867    1.4245   -1.6404 C   0  0  0  0  0  0  0  0  0  0  0  0
    6.3653    0.6060   -1.8505 C   0  0  0  0  0  0  0  0  0  0  0  0
    7.6143    1.1682   -2.0936 C   0  0  0  0  0  0  0  0  0  0  0  0
    8.9924    0.1396   -2.3622 Cl  0  0  0  0  0  0  0  0  0  0  0  0
    7.8073    2.5356   -2.1310 C   0  0  0  0  0  0  0  0  0  0  0  0
    9.3851    3.2529   -2.4381 Cl  0  0  0  0  0  0  0  0  0  0  0  0
    6.7107    3.3348   -1.9174 C   0  0  0  0  0  0  0  0  0  0  0  0
    5.4859    2.7892   -1.6790 C   0  0  0  0  0  0  0  0  0  0  0  0
    4.1195    3.8549   -1.4128 Cl  0  0  0  0  0  0  0  0  0  0  0  0
   -1.5561   -1.0590    0.8188 C   0  0  0  0  0  0  0  0  0  0  0  0
   -4.2323   -0.9156    0.7089 N   0  0  0  0  0  0  0  0  0  0  0  0
   -4.1685    0.1998    1.5974 C   0  0  0  0  0  0  0  0  0  0  0  0
   -3.1479    1.1057    1.7125 C   0  0  0  0  0  0  0  0  0  0  0  0
   -3.2197    2.1410    2.6192 C   0  0  0  0  0  0  0  0  0  0  0  0
   -4.3024    2.3313    3.4553 C   0  0  0  0  0  0  0  0  0  0  0  0
   -5.3221    1.4074    3.3245 C   0  0  0  0  0  0  0  0  0  0  0  0
   -6.7604    1.5510    4.3443 Cl  0  0  0  0  0  0  0  0  0  0  0  0
   -5.2421    0.3739    2.4142 C   0  0  0  0  0  0  0  0  0  0  0  0
   -4.7543   -0.7538   -0.5614 C   0  0  0  0  0  0  0  0  0  0  0  0
   -5.0256    0.6408   -0.9240 N   0  0  0  0  0  0  0  0  0  0  0  0
   -5.0128   -1.6816   -1.4244 N   0  0  0  0  0  0  0  0  0  0  0  0
  1  2  1  0
  2  3  2  0
  3  4  1  0
  4  5  1  6
  5  6  2  0
  6  7  1  0
  7  8  2  0
  8  9  1  0
  9 10  1  0
 10 11  1  0
 11 12  1  0
 12 13  1  0
 13 14  1  0
 14 15  1  0
 15 16  2  0
 16 17  1  0
 17 18  1  0
 17 19  2  0
 19 20  1  0
 19 21  1  0
 21 22  2  0
 22 23  1  0
  9 24  2  0
  4 25  1  0
 25 26  1  0
 26 27  2  0
 27 28  1  0
 28 29  2  0
 29 30  1  0
 30 31  1  0
 30 32  2  0
 25 33  1  0
 33 34  1  0
 33 35  2  0
 35  2  1  0
 24  5  1  0
 32 26  1  0
 22 15  1  0
M  END
>  <zinc_id>  (1094) 
ZINC000027732635

>  <ortholog_name>  (1094) 
DRTS_PLAFK

>  <gene_name>  (1094) 
DRTS_PLAFK

>  <affinity>  (1094) 
5.49

>  <chembldocid>  (1094) 
17662

>  <title>  (1094) 
None

>  <reference.pubmed_id>  (1094) 
14736247

>  <reference.doi>  (1094) 
None

>  <reference.chembl_id>  (1094) 
CHEMBL1138835

>  <reference.journal>  (1094) 
J. Med. Chem.

>  <reference.year>  (1094) 
2004

$$$$

     RDKit          3D

 35 38  0  0  0  0  0  0  0  0999 V2000
   -5.0801   -4.0873   -1.8673 N   0  0  0  0  0  0  0  0  0  0  0  0
   -4.6926   -2.9937   -0.9518 C   0  0  0  0  0  0  0  0  0  0  0  0
   -4.2053   -3.2646    0.1550 N   0  0  0  0  0  0  0  0  0  0  0  0
   -3.7723   -2.2628    1.1477 C   0  0  1  0  0  0  0  0  0  0  0  0
   -2.2095   -2.2405    0.9156 C   0  0  0  0  0  0  0  0  0  0  0  0
   -1.5361   -3.4183    0.8110 C   0  0  0  0  0  0  0  0  0  0  0  0
   -0.1406   -3.4391    0.5990 C   0  0  0  0  0  0  0  0  0  0  0  0
    0.5183   -2.2139    0.5014 C   0  0  0  0  0  0  0  0  0  0  0  0
   -0.1634   -1.0304    0.6073 C   0  0  0  0  0  0  0  0  0  0  0  0
    0.4940    0.1696    0.5099 O   0  0  0  0  0  0  0  0  0  0  0  0
    1.8898    0.2504    0.2981 C   0  0  0  0  0  0  0  0  0  0  0  0
    2.1734   -0.4560   -1.0345 C   0  0  0  0  0  0  0  0  0  0  0  0
    3.6725   -0.4054   -1.3263 C   0  0  0  0  0  0  0  0  0  0  0  0
    4.0288    0.9454   -1.3955 O   0  0  0  0  0  0  0  0  0  0  0  0
    5.2867    1.4245   -1.6404 C   0  0  0  0  0  0  0  0  0  0  0  0
    6.3653    0.6060   -1.8505 C   0  0  0  0  0  0  0  0  0  0  0  0
    7.6143    1.1682   -2.0936 C   0  0  0  0  0  0  0  0  0  0  0  0
    8.9924    0.1396   -2.3622 Cl  0  0  0  0  0  0  0  0  0  0  0  0
    7.8073    2.5356   -2.1310 C   0  0  0  0  0  0  0  0  0  0  0  0
    9.3851    3.2529   -2.4381 Cl  0  0  0  0  0  0  0  0  0  0  0  0
    6.7107    3.3348   -1.9174 C   0  0  0  0  0  0  0  0  0  0  0  0
    5.4859    2.7892   -1.6790 C   0  0  0  0  0  0  0  0  0  0  0  0
    4.1195    3.8549   -1.4128 Cl  0  0  0  0  0  0  0  0  0  0  0  0
   -1.5561   -1.0590    0.8188 C   0  0  0  0  0  0  0  0  0  0  0  0
   -4.2323   -0.9156    0.7089 N   0  0  0  0  0  0  0  0  0  0  0  0
   -4.1685    0.1998    1.5974 C   0  0  0  0  0  0  0  0  0  0  0  0
   -3.1479    1.1057    1.7125 C   0  0  0  0  0  0  0  0  0  0  0  0
   -3.2197    2.1410    2.6192 C   0  0  0  0  0  0  0  0  0  0  0  0
   -4.3024    2.3313    3.4553 C   0  0  0  0  0  0  0  0  0  0  0  0
   -5.3221    1.4074    3.3245 C   0  0  0  0  0  0  0  0  0  0  0  0
   -6.7604    1.5510    4.3443 Cl  0  0  0  0  0  0  0  0  0  0  0  0
   -5.2421    0.3739    2.4142 C   0  0  0  0  0  0  0  0  0  0  0  0
   -4.7543   -0.7538   -0.5614 C   0  0  0  0  0  0  0  0  0  0  0  0
   -5.0256    0.6408   -0.9240 N   0  0  0  0  0  0  0  0  0  0  0  0
   -5.0128   -1.6816   -1.4244 N   0  0  0  0  0  0  0  0  0  0  0  0
  1  2  1  0
  2  3  2  0
  3  4  1  0
  4  5  1  6
  5  6  2  0
  6  7  1  0
  7  8  2  0
  8  9  1  0
  9 10  1  0
 10 11  1  0
 11 12  1  0
 12 13  1  0
 13 14  1  0
 14 15  1  0
 15 16  2  0
 16 17  1  0
 17 18  1  0
 17 19  2  0
 19 20  1  0
 19 21  1  0
 21 22  2  0
 22 23  1  0
  9 24  2  0
  4 25  1  0
 25 26  1  0
 26 27  2  0
 27 28  1  0
 28 29  2  0
 29 30  1  0
 30 31  1  0
 30 32  2  0
 25 33  1  0
 33 34  1  0
 33 35  2  0
 35  2  1  0
 24  5  1  0
 32 26  1  0
 22 15  1  0
M  END
>  <zinc_id>  (1095) 
ZINC000027732635

>  <ortholog_name>  (1095) 
DRTS_PLAFK

>  <gene_name>  (1095) 
DRTS_PLAFK

>  <affinity>  (1095) 
6.43

>  <chembldocid>  (1095) 
17662

>  <title>  (1095) 
None

>  <reference.pubmed_id>  (1095) 
14736247

>  <reference.doi>  (1095) 
None

>  <reference.chembl_id>  (1095) 
CHEMBL1138835

>  <reference.journal>  (1095) 
J. Med. Chem.

>  <reference.year>  (1095) 
2004

$$$$

     RDKit          3D

 35 38  0  0  0  0  0  0  0  0999 V2000
   -5.0801   -4.0873   -1.8673 N   0  0  0  0  0  0  0  0  0  0  0  0
   -4.6926   -2.9937   -0.9518 C   0  0  0  0  0  0  0  0  0  0  0  0
   -4.2053   -3.2646    0.1550 N   0  0  0  0  0  0  0  0  0  0  0  0
   -3.7723   -2.2628    1.1477 C   0  0  1  0  0  0  0  0  0  0  0  0
   -2.2095   -2.2405    0.9156 C   0  0  0  0  0  0  0  0  0  0  0  0
   -1.5361   -3.4183    0.8110 C   0  0  0  0  0  0  0  0  0  0  0  0
   -0.1406   -3.4391    0.5990 C   0  0  0  0  0  0  0  0  0  0  0  0
    0.5183   -2.2139    0.5014 C   0  0  0  0  0  0  0  0  0  0  0  0
   -0.1634   -1.0304    0.6073 C   0  0  0  0  0  0  0  0  0  0  0  0
    0.4940    0.1696    0.5099 O   0  0  0  0  0  0  0  0  0  0  0  0
    1.8898    0.2504    0.2981 C   0  0  0  0  0  0  0  0  0  0  0  0
    2.1734   -0.4560   -1.0345 C   0  0  0  0  0  0  0  0  0  0  0  0
    3.6725   -0.4054   -1.3263 C   0  0  0  0  0  0  0  0  0  0  0  0
    4.0288    0.9454   -1.3955 O   0  0  0  0  0  0  0  0  0  0  0  0
    5.2867    1.4245   -1.6404 C   0  0  0  0  0  0  0  0  0  0  0  0
    6.3653    0.6060   -1.8505 C   0  0  0  0  0  0  0  0  0  0  0  0
    7.6143    1.1682   -2.0936 C   0  0  0  0  0  0  0  0  0  0  0  0
    8.9924    0.1396   -2.3622 Cl  0  0  0  0  0  0  0  0  0  0  0  0
    7.8073    2.5356   -2.1310 C   0  0  0  0  0  0  0  0  0  0  0  0
    9.3851    3.2529   -2.4381 Cl  0  0  0  0  0  0  0  0  0  0  0  0
    6.7107    3.3348   -1.9174 C   0  0  0  0  0  0  0  0  0  0  0  0
    5.4859    2.7892   -1.6790 C   0  0  0  0  0  0  0  0  0  0  0  0
    4.1195    3.8549   -1.4128 Cl  0  0  0  0  0  0  0  0  0  0  0  0
   -1.5561   -1.0590    0.8188 C   0  0  0  0  0  0  0  0  0  0  0  0
   -4.2323   -0.9156    0.7089 N   0  0  0  0  0  0  0  0  0  0  0  0
   -4.1685    0.1998    1.5974 C   0  0  0  0  0  0  0  0  0  0  0  0
   -3.1479    1.1057    1.7125 C   0  0  0  0  0  0  0  0  0  0  0  0
   -3.2197    2.1410    2.6192 C   0  0  0  0  0  0  0  0  0  0  0  0
   -4.3024    2.3313    3.4553 C   0  0  0  0  0  0  0  0  0  0  0  0
   -5.3221    1.4074    3.3245 C   0  0  0  0  0  0  0  0  0  0  0  0
   -6.7604    1.5510    4.3443 Cl  0  0  0  0  0  0  0  0  0  0  0  0
   -5.2421    0.3739    2.4142 C   0  0  0  0  0  0  0  0  0  0  0  0
   -4.7543   -0.7538   -0.5614 C   0  0  0  0  0  0  0  0  0  0  0  0
   -5.0256    0.6408   -0.9240 N   0  0  0  0  0  0  0  0  0  0  0  0
   -5.0128   -1.6816   -1.4244 N   0  0  0  0  0  0  0  0  0  0  0  0
  1  2  1  0
  2  3  2  0
  3  4  1  0
  4  5  1  6
  5  6  2  0
  6  7  1  0
  7  8  2  0
  8  9  1  0
  9 10  1  0
 10 11  1  0
 11 12  1  0
 12 13  1  0
 13 14  1  0
 14 15  1  0
 15 16  2  0
 16 17  1  0
 17 18  1  0
 17 19  2  0
 19 20  1  0
 19 21  1  0
 21 22  2  0
 22 23  1  0
  9 24  2  0
  4 25  1  0
 25 26  1  0
 26 27  2  0
 27 28  1  0
 28 29  2  0
 29 30  1  0
 30 31  1  0
 30 32  2  0
 25 33  1  0
 33 34  1  0
 33 35  2  0
 35  2  1  0
 24  5  1  0
 32 26  1  0
 22 15  1  0
M  END
>  <zinc_id>  (1096) 
ZINC000027732635

>  <ortholog_name>  (1096) 
DRTS_PLAFK

>  <gene_name>  (1096) 
DRTS_PLAFK

>  <affinity>  (1096) 
8.40

>  <chembldocid>  (1096) 
17662

>  <title>  (1096) 
None

>  <reference.pubmed_id>  (1096) 
14736247

>  <reference.doi>  (1096) 
None

>  <reference.chembl_id>  (1096) 
CHEMBL1138835

>  <reference.journal>  (1096) 
J. Med. Chem.

>  <reference.year>  (1096) 
2004

$$$$

     RDKit          3D

 35 38  0  0  0  0  0  0  0  0999 V2000
   -5.0801   -4.0873   -1.8673 N   0  0  0  0  0  0  0  0  0  0  0  0
   -4.6926   -2.9937   -0.9518 C   0  0  0  0  0  0  0  0  0  0  0  0
   -4.2053   -3.2646    0.1550 N   0  0  0  0  0  0  0  0  0  0  0  0
   -3.7723   -2.2628    1.1477 C   0  0  1  0  0  0  0  0  0  0  0  0
   -2.2095   -2.2405    0.9156 C   0  0  0  0  0  0  0  0  0  0  0  0
   -1.5361   -3.4183    0.8110 C   0  0  0  0  0  0  0  0  0  0  0  0
   -0.1406   -3.4391    0.5990 C   0  0  0  0  0  0  0  0  0  0  0  0
    0.5183   -2.2139    0.5014 C   0  0  0  0  0  0  0  0  0  0  0  0
   -0.1634   -1.0304    0.6073 C   0  0  0  0  0  0  0  0  0  0  0  0
    0.4940    0.1696    0.5099 O   0  0  0  0  0  0  0  0  0  0  0  0
    1.8898    0.2504    0.2981 C   0  0  0  0  0  0  0  0  0  0  0  0
    2.1734   -0.4560   -1.0345 C   0  0  0  0  0  0  0  0  0  0  0  0
    3.6725   -0.4054   -1.3263 C   0  0  0  0  0  0  0  0  0  0  0  0
    4.0288    0.9454   -1.3955 O   0  0  0  0  0  0  0  0  0  0  0  0
    5.2867    1.4245   -1.6404 C   0  0  0  0  0  0  0  0  0  0  0  0
    6.3653    0.6060   -1.8505 C   0  0  0  0  0  0  0  0  0  0  0  0
    7.6143    1.1682   -2.0936 C   0  0  0  0  0  0  0  0  0  0  0  0
    8.9924    0.1396   -2.3622 Cl  0  0  0  0  0  0  0  0  0  0  0  0
    7.8073    2.5356   -2.1310 C   0  0  0  0  0  0  0  0  0  0  0  0
    9.3851    3.2529   -2.4381 Cl  0  0  0  0  0  0  0  0  0  0  0  0
    6.7107    3.3348   -1.9174 C   0  0  0  0  0  0  0  0  0  0  0  0
    5.4859    2.7892   -1.6790 C   0  0  0  0  0  0  0  0  0  0  0  0
    4.1195    3.8549   -1.4128 Cl  0  0  0  0  0  0  0  0  0  0  0  0
   -1.5561   -1.0590    0.8188 C   0  0  0  0  0  0  0  0  0  0  0  0
   -4.2323   -0.9156    0.7089 N   0  0  0  0  0  0  0  0  0  0  0  0
   -4.1685    0.1998    1.5974 C   0  0  0  0  0  0  0  0  0  0  0  0
   -3.1479    1.1057    1.7125 C   0  0  0  0  0  0  0  0  0  0  0  0
   -3.2197    2.1410    2.6192 C   0  0  0  0  0  0  0  0  0  0  0  0
   -4.3024    2.3313    3.4553 C   0  0  0  0  0  0  0  0  0  0  0  0
   -5.3221    1.4074    3.3245 C   0  0  0  0  0  0  0  0  0  0  0  0
   -6.7604    1.5510    4.3443 Cl  0  0  0  0  0  0  0  0  0  0  0  0
   -5.2421    0.3739    2.4142 C   0  0  0  0  0  0  0  0  0  0  0  0
   -4.7543   -0.7538   -0.5614 C   0  0  0  0  0  0  0  0  0  0  0  0
   -5.0256    0.6408   -0.9240 N   0  0  0  0  0  0  0  0  0  0  0  0
   -5.0128   -1.6816   -1.4244 N   0  0  0  0  0  0  0  0  0  0  0  0
  1  2  1  0
  2  3  2  0
  3  4  1  0
  4  5  1  6
  5  6  2  0
  6  7  1  0
  7  8  2  0
  8  9  1  0
  9 10  1  0
 10 11  1  0
 11 12  1  0
 12 13  1  0
 13 14  1  0
 14 15  1  0
 15 16  2  0
 16 17  1  0
 17 18  1  0
 17 19  2  0
 19 20  1  0
 19 21  1  0
 21 22  2  0
 22 23  1  0
  9 24  2  0
  4 25  1  0
 25 26  1  0
 26 27  2  0
 27 28  1  0
 28 29  2  0
 29 30  1  0
 30 31  1  0
 30 32  2  0
 25 33  1  0
 33 34  1  0
 33 35  2  0
 35  2  1  0
 24  5  1  0
 32 26  1  0
 22 15  1  0
M  END
>  <zinc_id>  (1097) 
ZINC000027732635

>  <ortholog_name>  (1097) 
DRTS_PLAFK

>  <gene_name>  (1097) 
DRTS_PLAFK

>  <affinity>  (1097) 
8.35

>  <chembldocid>  (1097) 
17662

>  <title>  (1097) 
None

>  <reference.pubmed_id>  (1097) 
14736247

>  <reference.doi>  (1097) 
None

>  <reference.chembl_id>  (1097) 
CHEMBL1138835

>  <reference.journal>  (1097) 
J. Med. Chem.

>  <reference.year>  (1097) 
2004

$$$$

     RDKit          3D

 35 38  0  0  0  0  0  0  0  0999 V2000
   -5.0801   -4.0873   -1.8673 N   0  0  0  0  0  0  0  0  0  0  0  0
   -4.6926   -2.9937   -0.9518 C   0  0  0  0  0  0  0  0  0  0  0  0
   -4.2053   -3.2646    0.1550 N   0  0  0  0  0  0  0  0  0  0  0  0
   -3.7723   -2.2628    1.1477 C   0  0  1  0  0  0  0  0  0  0  0  0
   -2.2095   -2.2405    0.9156 C   0  0  0  0  0  0  0  0  0  0  0  0
   -1.5361   -3.4183    0.8110 C   0  0  0  0  0  0  0  0  0  0  0  0
   -0.1406   -3.4391    0.5990 C   0  0  0  0  0  0  0  0  0  0  0  0
    0.5183   -2.2139    0.5014 C   0  0  0  0  0  0  0  0  0  0  0  0
   -0.1634   -1.0304    0.6073 C   0  0  0  0  0  0  0  0  0  0  0  0
    0.4940    0.1696    0.5099 O   0  0  0  0  0  0  0  0  0  0  0  0
    1.8898    0.2504    0.2981 C   0  0  0  0  0  0  0  0  0  0  0  0
    2.1734   -0.4560   -1.0345 C   0  0  0  0  0  0  0  0  0  0  0  0
    3.6725   -0.4054   -1.3263 C   0  0  0  0  0  0  0  0  0  0  0  0
    4.0288    0.9454   -1.3955 O   0  0  0  0  0  0  0  0  0  0  0  0
    5.2867    1.4245   -1.6404 C   0  0  0  0  0  0  0  0  0  0  0  0
    6.3653    0.6060   -1.8505 C   0  0  0  0  0  0  0  0  0  0  0  0
    7.6143    1.1682   -2.0936 C   0  0  0  0  0  0  0  0  0  0  0  0
    8.9924    0.1396   -2.3622 Cl  0  0  0  0  0  0  0  0  0  0  0  0
    7.8073    2.5356   -2.1310 C   0  0  0  0  0  0  0  0  0  0  0  0
    9.3851    3.2529   -2.4381 Cl  0  0  0  0  0  0  0  0  0  0  0  0
    6.7107    3.3348   -1.9174 C   0  0  0  0  0  0  0  0  0  0  0  0
    5.4859    2.7892   -1.6790 C   0  0  0  0  0  0  0  0  0  0  0  0
    4.1195    3.8549   -1.4128 Cl  0  0  0  0  0  0  0  0  0  0  0  0
   -1.5561   -1.0590    0.8188 C   0  0  0  0  0  0  0  0  0  0  0  0
   -4.2323   -0.9156    0.7089 N   0  0  0  0  0  0  0  0  0  0  0  0
   -4.1685    0.1998    1.5974 C   0  0  0  0  0  0  0  0  0  0  0  0
   -3.1479    1.1057    1.7125 C   0  0  0  0  0  0  0  0  0  0  0  0
   -3.2197    2.1410    2.6192 C   0  0  0  0  0  0  0  0  0  0  0  0
   -4.3024    2.3313    3.4553 C   0  0  0  0  0  0  0  0  0  0  0  0
   -5.3221    1.4074    3.3245 C   0  0  0  0  0  0  0  0  0  0  0  0
   -6.7604    1.5510    4.3443 Cl  0  0  0  0  0  0  0  0  0  0  0  0
   -5.2421    0.3739    2.4142 C   0  0  0  0  0  0  0  0  0  0  0  0
   -4.7543   -0.7538   -0.5614 C   0  0  0  0  0  0  0  0  0  0  0  0
   -5.0256    0.6408   -0.9240 N   0  0  0  0  0  0  0  0  0  0  0  0
   -5.0128   -1.6816   -1.4244 N   0  0  0  0  0  0  0  0  0  0  0  0
  1  2  1  0
  2  3  2  0
  3  4  1  0
  4  5  1  6
  5  6  2  0
  6  7  1  0
  7  8  2  0
  8  9  1  0
  9 10  1  0
 10 11  1  0
 11 12  1  0
 12 13  1  0
 13 14  1  0
 14 15  1  0
 15 16  2  0
 16 17  1  0
 17 18  1  0
 17 19  2  0
 19 20  1  0
 19 21  1  0
 21 22  2  0
 22 23  1  0
  9 24  2  0
  4 25  1  0
 25 26  1  0
 26 27  2  0
 27 28  1  0
 28 29  2  0
 29 30  1  0
 30 31  1  0
 30 32  2  0
 25 33  1  0
 33 34  1  0
 33 35  2  0
 35  2  1  0
 24  5  1  0
 32 26  1  0
 22 15  1  0
M  END
>  <zinc_id>  (1098) 
ZINC000027732635

>  <ortholog_name>  (1098) 
DRTS_PLAFK

>  <gene_name>  (1098) 
DRTS_PLAFK

>  <affinity>  (1098) 
5.28

>  <chembldocid>  (1098) 
17662

>  <title>  (1098) 
None

>  <reference.pubmed_id>  (1098) 
14736247

>  <reference.doi>  (1098) 
None

>  <reference.chembl_id>  (1098) 
CHEMBL1138835

>  <reference.journal>  (1098) 
J. Med. Chem.

>  <reference.year>  (1098) 
2004

$$$$

     RDKit          3D

 35 38  0  0  0  0  0  0  0  0999 V2000
   -5.0801   -4.0873   -1.8673 N   0  0  0  0  0  0  0  0  0  0  0  0
   -4.6926   -2.9937   -0.9518 C   0  0  0  0  0  0  0  0  0  0  0  0
   -4.2053   -3.2646    0.1550 N   0  0  0  0  0  0  0  0  0  0  0  0
   -3.7723   -2.2628    1.1477 C   0  0  1  0  0  0  0  0  0  0  0  0
   -2.2095   -2.2405    0.9156 C   0  0  0  0  0  0  0  0  0  0  0  0
   -1.5361   -3.4183    0.8110 C   0  0  0  0  0  0  0  0  0  0  0  0
   -0.1406   -3.4391    0.5990 C   0  0  0  0  0  0  0  0  0  0  0  0
    0.5183   -2.2139    0.5014 C   0  0  0  0  0  0  0  0  0  0  0  0
   -0.1634   -1.0304    0.6073 C   0  0  0  0  0  0  0  0  0  0  0  0
    0.4940    0.1696    0.5099 O   0  0  0  0  0  0  0  0  0  0  0  0
    1.8898    0.2504    0.2981 C   0  0  0  0  0  0  0  0  0  0  0  0
    2.1734   -0.4560   -1.0345 C   0  0  0  0  0  0  0  0  0  0  0  0
    3.6725   -0.4054   -1.3263 C   0  0  0  0  0  0  0  0  0  0  0  0
    4.0288    0.9454   -1.3955 O   0  0  0  0  0  0  0  0  0  0  0  0
    5.2867    1.4245   -1.6404 C   0  0  0  0  0  0  0  0  0  0  0  0
    6.3653    0.6060   -1.8505 C   0  0  0  0  0  0  0  0  0  0  0  0
    7.6143    1.1682   -2.0936 C   0  0  0  0  0  0  0  0  0  0  0  0
    8.9924    0.1396   -2.3622 Cl  0  0  0  0  0  0  0  0  0  0  0  0
    7.8073    2.5356   -2.1310 C   0  0  0  0  0  0  0  0  0  0  0  0
    9.3851    3.2529   -2.4381 Cl  0  0  0  0  0  0  0  0  0  0  0  0
    6.7107    3.3348   -1.9174 C   0  0  0  0  0  0  0  0  0  0  0  0
    5.4859    2.7892   -1.6790 C   0  0  0  0  0  0  0  0  0  0  0  0
    4.1195    3.8549   -1.4128 Cl  0  0  0  0  0  0  0  0  0  0  0  0
   -1.5561   -1.0590    0.8188 C   0  0  0  0  0  0  0  0  0  0  0  0
   -4.2323   -0.9156    0.7089 N   0  0  0  0  0  0  0  0  0  0  0  0
   -4.1685    0.1998    1.5974 C   0  0  0  0  0  0  0  0  0  0  0  0
   -3.1479    1.1057    1.7125 C   0  0  0  0  0  0  0  0  0  0  0  0
   -3.2197    2.1410    2.6192 C   0  0  0  0  0  0  0  0  0  0  0  0
   -4.3024    2.3313    3.4553 C   0  0  0  0  0  0  0  0  0  0  0  0
   -5.3221    1.4074    3.3245 C   0  0  0  0  0  0  0  0  0  0  0  0
   -6.7604    1.5510    4.3443 Cl  0  0  0  0  0  0  0  0  0  0  0  0
   -5.2421    0.3739    2.4142 C   0  0  0  0  0  0  0  0  0  0  0  0
   -4.7543   -0.7538   -0.5614 C   0  0  0  0  0  0  0  0  0  0  0  0
   -5.0256    0.6408   -0.9240 N   0  0  0  0  0  0  0  0  0  0  0  0
   -5.0128   -1.6816   -1.4244 N   0  0  0  0  0  0  0  0  0  0  0  0
  1  2  1  0
  2  3  2  0
  3  4  1  0
  4  5  1  6
  5  6  2  0
  6  7  1  0
  7  8  2  0
  8  9  1  0
  9 10  1  0
 10 11  1  0
 11 12  1  0
 12 13  1  0
 13 14  1  0
 14 15  1  0
 15 16  2  0
 16 17  1  0
 17 18  1  0
 17 19  2  0
 19 20  1  0
 19 21  1  0
 21 22  2  0
 22 23  1  0
  9 24  2  0
  4 25  1  0
 25 26  1  0
 26 27  2  0
 27 28  1  0
 28 29  2  0
 29 30  1  0
 30 31  1  0
 30 32  2  0
 25 33  1  0
 33 34  1  0
 33 35  2  0
 35  2  1  0
 24  5  1  0
 32 26  1  0
 22 15  1  0
M  END
>  <zinc_id>  (1099) 
ZINC000027732635

>  <ortholog_name>  (1099) 
DRTS_PLAFK

>  <gene_name>  (1099) 
DRTS_PLAFK

>  <affinity>  (1099) 
5.13

>  <chembldocid>  (1099) 
17662

>  <title>  (1099) 
None

>  <reference.pubmed_id>  (1099) 
14736247

>  <reference.doi>  (1099) 
None

>  <reference.chembl_id>  (1099) 
CHEMBL1138835

>  <reference.journal>  (1099) 
J. Med. Chem.

>  <reference.year>  (1099) 
2004

$$$$

     RDKit          3D

 35 38  0  0  0  0  0  0  0  0999 V2000
   -5.0801   -4.0873   -1.8673 N   0  0  0  0  0  0  0  0  0  0  0  0
   -4.6926   -2.9937   -0.9518 C   0  0  0  0  0  0  0  0  0  0  0  0
   -4.2053   -3.2646    0.1550 N   0  0  0  0  0  0  0  0  0  0  0  0
   -3.7723   -2.2628    1.1477 C   0  0  1  0  0  0  0  0  0  0  0  0
   -2.2095   -2.2405    0.9156 C   0  0  0  0  0  0  0  0  0  0  0  0
   -1.5361   -3.4183    0.8110 C   0  0  0  0  0  0  0  0  0  0  0  0
   -0.1406   -3.4391    0.5990 C   0  0  0  0  0  0  0  0  0  0  0  0
    0.5183   -2.2139    0.5014 C   0  0  0  0  0  0  0  0  0  0  0  0
   -0.1634   -1.0304    0.6073 C   0  0  0  0  0  0  0  0  0  0  0  0
    0.4940    0.1696    0.5099 O   0  0  0  0  0  0  0  0  0  0  0  0
    1.8898    0.2504    0.2981 C   0  0  0  0  0  0  0  0  0  0  0  0
    2.1734   -0.4560   -1.0345 C   0  0  0  0  0  0  0  0  0  0  0  0
    3.6725   -0.4054   -1.3263 C   0  0  0  0  0  0  0  0  0  0  0  0
    4.0288    0.9454   -1.3955 O   0  0  0  0  0  0  0  0  0  0  0  0
    5.2867    1.4245   -1.6404 C   0  0  0  0  0  0  0  0  0  0  0  0
    6.3653    0.6060   -1.8505 C   0  0  0  0  0  0  0  0  0  0  0  0
    7.6143    1.1682   -2.0936 C   0  0  0  0  0  0  0  0  0  0  0  0
    8.9924    0.1396   -2.3622 Cl  0  0  0  0  0  0  0  0  0  0  0  0
    7.8073    2.5356   -2.1310 C   0  0  0  0  0  0  0  0  0  0  0  0
    9.3851    3.2529   -2.4381 Cl  0  0  0  0  0  0  0  0  0  0  0  0
    6.7107    3.3348   -1.9174 C   0  0  0  0  0  0  0  0  0  0  0  0
    5.4859    2.7892   -1.6790 C   0  0  0  0  0  0  0  0  0  0  0  0
    4.1195    3.8549   -1.4128 Cl  0  0  0  0  0  0  0  0  0  0  0  0
   -1.5561   -1.0590    0.8188 C   0  0  0  0  0  0  0  0  0  0  0  0
   -4.2323   -0.9156    0.7089 N   0  0  0  0  0  0  0  0  0  0  0  0
   -4.1685    0.1998    1.5974 C   0  0  0  0  0  0  0  0  0  0  0  0
   -3.1479    1.1057    1.7125 C   0  0  0  0  0  0  0  0  0  0  0  0
   -3.2197    2.1410    2.6192 C   0  0  0  0  0  0  0  0  0  0  0  0
   -4.3024    2.3313    3.4553 C   0  0  0  0  0  0  0  0  0  0  0  0
   -5.3221    1.4074    3.3245 C   0  0  0  0  0  0  0  0  0  0  0  0
   -6.7604    1.5510    4.3443 Cl  0  0  0  0  0  0  0  0  0  0  0  0
   -5.2421    0.3739    2.4142 C   0  0  0  0  0  0  0  0  0  0  0  0
   -4.7543   -0.7538   -0.5614 C   0  0  0  0  0  0  0  0  0  0  0  0
   -5.0256    0.6408   -0.9240 N   0  0  0  0  0  0  0  0  0  0  0  0
   -5.0128   -1.6816   -1.4244 N   0  0  0  0  0  0  0  0  0  0  0  0
  1  2  1  0
  2  3  2  0
  3  4  1  0
  4  5  1  6
  5  6  2  0
  6  7  1  0
  7  8  2  0
  8  9  1  0
  9 10  1  0
 10 11  1  0
 11 12  1  0
 12 13  1  0
 13 14  1  0
 14 15  1  0
 15 16  2  0
 16 17  1  0
 17 18  1  0
 17 19  2  0
 19 20  1  0
 19 21  1  0
 21 22  2  0
 22 23  1  0
  9 24  2  0
  4 25  1  0
 25 26  1  0
 26 27  2  0
 27 28  1  0
 28 29  2  0
 29 30  1  0
 30 31  1  0
 30 32  2  0
 25 33  1  0
 33 34  1  0
 33 35  2  0
 35  2  1  0
 24  5  1  0
 32 26  1  0
 22 15  1  0
M  END
>  <zinc_id>  (1100) 
ZINC000027732635

>  <ortholog_name>  (1100) 
DRTS_PLAFK

>  <gene_name>  (1100) 
DRTS_PLAFK

>  <affinity>  (1100) 
5.07

>  <chembldocid>  (1100) 
17662

>  <title>  (1100) 
None

>  <reference.pubmed_id>  (1100) 
14736247

>  <reference.doi>  (1100) 
None

>  <reference.chembl_id>  (1100) 
CHEMBL1138835

>  <reference.journal>  (1100) 
J. Med. Chem.

>  <reference.year>  (1100) 
2004

$$$$

     RDKit          3D

 35 38  0  0  0  0  0  0  0  0999 V2000
   -3.4077   -3.8398    0.8368 N   0  0  0  0  0  0  0  0  0  0  0  0
   -3.5681   -2.5450    0.1944 C   0  0  0  0  0  0  0  0  0  0  0  0
   -3.3226   -2.5252   -0.9977 N   0  0  0  0  0  0  0  0  0  0  0  0
   -3.3848   -1.3419   -1.9752 C   0  0  2  0  0  0  0  0  0  0  0  0
   -1.8379   -0.9179   -2.0008 C   0  0  0  0  0  0  0  0  0  0  0  0
   -1.3318   -0.5974   -3.2114 C   0  0  0  0  0  0  0  0  0  0  0  0
    0.0294   -0.2276   -3.2662 C   0  0  0  0  0  0  0  0  0  0  0  0
    0.7559   -0.2171   -2.0819 C   0  0  0  0  0  0  0  0  0  0  0  0
    0.2030   -0.5506   -0.8699 C   0  0  0  0  0  0  0  0  0  0  0  0
    0.9976   -0.5126    0.2410 O   0  0  0  0  0  0  0  0  0  0  0  0
    2.3365   -0.1586    0.2813 C   0  0  0  0  0  0  0  0  0  0  0  0
    2.6517    1.2086   -0.1701 C   0  0  0  0  0  0  0  0  0  0  0  0
    4.0532    1.6620   -0.1618 C   0  0  0  0  0  0  0  0  0  0  0  0
    4.7603    1.6819    1.0158 O   0  0  0  0  0  0  0  0  0  0  0  0
    5.1000    0.6317    1.8222 C   0  0  0  0  0  0  0  0  0  0  0  0
    4.7690   -0.6923    1.5410 C   0  0  0  0  0  0  0  0  0  0  0  0
    5.1408   -1.6964    2.3841 C   0  0  0  0  0  0  0  0  0  0  0  0
    4.7056   -3.3379    1.9840 Cl  0  0  0  0  0  0  0  0  0  0  0  0
    5.8450   -1.4566    3.5259 C   0  0  0  0  0  0  0  0  0  0  0  0
    6.3395   -2.7194    4.6157 Cl  0  0  0  0  0  0  0  0  0  0  0  0
    6.1710   -0.1233    3.7984 C   0  0  0  0  0  0  0  0  0  0  0  0
    5.8244    0.9081    2.9936 C   0  0  0  0  0  0  0  0  0  0  0  0
    6.2499    2.5620    3.3703 Cl  0  0  0  0  0  0  0  0  0  0  0  0
   -1.1250   -0.9026   -0.8698 C   0  0  0  0  0  0  0  0  0  0  0  0
   -3.8817   -0.1980   -1.0381 N   0  0  0  0  0  0  0  0  0  0  0  0
   -4.0652    1.0541   -1.7486 C   0  0  0  0  0  0  0  0  0  0  0  0
   -2.9928    1.8816   -1.7604 C   0  0  0  0  0  0  0  0  0  0  0  0
   -3.0130    3.1217   -2.4158 C   0  0  0  0  0  0  0  0  0  0  0  0
   -4.1691    3.4643   -3.0472 C   0  0  0  0  0  0  0  0  0  0  0  0
   -5.2565    2.6497   -3.0492 C   0  0  0  0  0  0  0  0  0  0  0  0
   -6.6928    3.1806   -3.8930 Cl  0  0  0  0  0  0  0  0  0  0  0  0
   -5.2113    1.4145   -2.3866 C   0  0  0  0  0  0  0  0  0  0  0  0
   -4.1238   -0.3285    0.2909 C   0  0  0  0  0  0  0  0  0  0  0  0
   -4.5531    0.8888    0.9662 N   0  0  0  0  0  0  0  0  0  0  0  0
   -3.9955   -1.4206    0.9437 N   0  0  0  0  0  0  0  0  0  0  0  0
  1  2  1  0
  2  3  2  0
  3  4  1  0
  4  5  1  1
  5  6  2  0
  6  7  1  0
  7  8  2  0
  8  9  1  0
  9 10  1  0
 10 11  1  0
 11 12  1  0
 12 13  1  0
 13 14  1  0
 14 15  1  0
 15 16  2  0
 16 17  1  0
 17 18  1  0
 17 19  2  0
 19 20  1  0
 19 21  1  0
 21 22  2  0
 22 23  1  0
  9 24  2  0
  4 25  1  0
 25 26  1  0
 26 27  2  0
 27 28  1  0
 28 29  2  0
 29 30  1  0
 30 31  1  0
 30 32  2  0
 25 33  1  0
 33 34  1  0
 33 35  2  0
 35  2  1  0
 24  5  1  0
 32 26  1  0
 22 15  1  0
M  END
>  <zinc_id>  (1101) 
ZINC000027732640

>  <ortholog_name>  (1101) 
DRTS_PLAFK

>  <gene_name>  (1101) 
DRTS_PLAFK

>  <affinity>  (1101) 
8.70

>  <chembldocid>  (1101) 
17662

>  <title>  (1101) 
None

>  <reference.pubmed_id>  (1101) 
14736247

>  <reference.doi>  (1101) 
None

>  <reference.chembl_id>  (1101) 
CHEMBL1138835

>  <reference.journal>  (1101) 
J. Med. Chem.

>  <reference.year>  (1101) 
2004

$$$$

     RDKit          3D

 35 38  0  0  0  0  0  0  0  0999 V2000
   -3.4077   -3.8398    0.8368 N   0  0  0  0  0  0  0  0  0  0  0  0
   -3.5681   -2.5450    0.1944 C   0  0  0  0  0  0  0  0  0  0  0  0
   -3.3226   -2.5252   -0.9977 N   0  0  0  0  0  0  0  0  0  0  0  0
   -3.3848   -1.3419   -1.9752 C   0  0  2  0  0  0  0  0  0  0  0  0
   -1.8379   -0.9179   -2.0008 C   0  0  0  0  0  0  0  0  0  0  0  0
   -1.3318   -0.5974   -3.2114 C   0  0  0  0  0  0  0  0  0  0  0  0
    0.0294   -0.2276   -3.2662 C   0  0  0  0  0  0  0  0  0  0  0  0
    0.7559   -0.2171   -2.0819 C   0  0  0  0  0  0  0  0  0  0  0  0
    0.2030   -0.5506   -0.8699 C   0  0  0  0  0  0  0  0  0  0  0  0
    0.9976   -0.5126    0.2410 O   0  0  0  0  0  0  0  0  0  0  0  0
    2.3365   -0.1586    0.2813 C   0  0  0  0  0  0  0  0  0  0  0  0
    2.6517    1.2086   -0.1701 C   0  0  0  0  0  0  0  0  0  0  0  0
    4.0532    1.6620   -0.1618 C   0  0  0  0  0  0  0  0  0  0  0  0
    4.7603    1.6819    1.0158 O   0  0  0  0  0  0  0  0  0  0  0  0
    5.1000    0.6317    1.8222 C   0  0  0  0  0  0  0  0  0  0  0  0
    4.7690   -0.6923    1.5410 C   0  0  0  0  0  0  0  0  0  0  0  0
    5.1408   -1.6964    2.3841 C   0  0  0  0  0  0  0  0  0  0  0  0
    4.7056   -3.3379    1.9840 Cl  0  0  0  0  0  0  0  0  0  0  0  0
    5.8450   -1.4566    3.5259 C   0  0  0  0  0  0  0  0  0  0  0  0
    6.3395   -2.7194    4.6157 Cl  0  0  0  0  0  0  0  0  0  0  0  0
    6.1710   -0.1233    3.7984 C   0  0  0  0  0  0  0  0  0  0  0  0
    5.8244    0.9081    2.9936 C   0  0  0  0  0  0  0  0  0  0  0  0
    6.2499    2.5620    3.3703 Cl  0  0  0  0  0  0  0  0  0  0  0  0
   -1.1250   -0.9026   -0.8698 C   0  0  0  0  0  0  0  0  0  0  0  0
   -3.8817   -0.1980   -1.0381 N   0  0  0  0  0  0  0  0  0  0  0  0
   -4.0652    1.0541   -1.7486 C   0  0  0  0  0  0  0  0  0  0  0  0
   -2.9928    1.8816   -1.7604 C   0  0  0  0  0  0  0  0  0  0  0  0
   -3.0130    3.1217   -2.4158 C   0  0  0  0  0  0  0  0  0  0  0  0
   -4.1691    3.4643   -3.0472 C   0  0  0  0  0  0  0  0  0  0  0  0
   -5.2565    2.6497   -3.0492 C   0  0  0  0  0  0  0  0  0  0  0  0
   -6.6928    3.1806   -3.8930 Cl  0  0  0  0  0  0  0  0  0  0  0  0
   -5.2113    1.4145   -2.3866 C   0  0  0  0  0  0  0  0  0  0  0  0
   -4.1238   -0.3285    0.2909 C   0  0  0  0  0  0  0  0  0  0  0  0
   -4.5531    0.8888    0.9662 N   0  0  0  0  0  0  0  0  0  0  0  0
   -3.9955   -1.4206    0.9437 N   0  0  0  0  0  0  0  0  0  0  0  0
  1  2  1  0
  2  3  2  0
  3  4  1  0
  4  5  1  1
  5  6  2  0
  6  7  1  0
  7  8  2  0
  8  9  1  0
  9 10  1  0
 10 11  1  0
 11 12  1  0
 12 13  1  0
 13 14  1  0
 14 15  1  0
 15 16  2  0
 16 17  1  0
 17 18  1  0
 17 19  2  0
 19 20  1  0
 19 21  1  0
 21 22  2  0
 22 23  1  0
  9 24  2  0
  4 25  1  0
 25 26  1  0
 26 27  2  0
 27 28  1  0
 28 29  2  0
 29 30  1  0
 30 31  1  0
 30 32  2  0
 25 33  1  0
 33 34  1  0
 33 35  2  0
 35  2  1  0
 24  5  1  0
 32 26  1  0
 22 15  1  0
M  END
>  <zinc_id>  (1102) 
ZINC000027732640

>  <ortholog_name>  (1102) 
DRTS_PLAFK

>  <gene_name>  (1102) 
DRTS_PLAFK

>  <affinity>  (1102) 
8.66

>  <chembldocid>  (1102) 
17662

>  <title>  (1102) 
None

>  <reference.pubmed_id>  (1102) 
14736247

>  <reference.doi>  (1102) 
None

>  <reference.chembl_id>  (1102) 
CHEMBL1138835

>  <reference.journal>  (1102) 
J. Med. Chem.

>  <reference.year>  (1102) 
2004

$$$$

     RDKit          3D

 35 38  0  0  0  0  0  0  0  0999 V2000
   -3.4077   -3.8398    0.8368 N   0  0  0  0  0  0  0  0  0  0  0  0
   -3.5681   -2.5450    0.1944 C   0  0  0  0  0  0  0  0  0  0  0  0
   -3.3226   -2.5252   -0.9977 N   0  0  0  0  0  0  0  0  0  0  0  0
   -3.3848   -1.3419   -1.9752 C   0  0  2  0  0  0  0  0  0  0  0  0
   -1.8379   -0.9179   -2.0008 C   0  0  0  0  0  0  0  0  0  0  0  0
   -1.3318   -0.5974   -3.2114 C   0  0  0  0  0  0  0  0  0  0  0  0
    0.0294   -0.2276   -3.2662 C   0  0  0  0  0  0  0  0  0  0  0  0
    0.7559   -0.2171   -2.0819 C   0  0  0  0  0  0  0  0  0  0  0  0
    0.2030   -0.5506   -0.8699 C   0  0  0  0  0  0  0  0  0  0  0  0
    0.9976   -0.5126    0.2410 O   0  0  0  0  0  0  0  0  0  0  0  0
    2.3365   -0.1586    0.2813 C   0  0  0  0  0  0  0  0  0  0  0  0
    2.6517    1.2086   -0.1701 C   0  0  0  0  0  0  0  0  0  0  0  0
    4.0532    1.6620   -0.1618 C   0  0  0  0  0  0  0  0  0  0  0  0
    4.7603    1.6819    1.0158 O   0  0  0  0  0  0  0  0  0  0  0  0
    5.1000    0.6317    1.8222 C   0  0  0  0  0  0  0  0  0  0  0  0
    4.7690   -0.6923    1.5410 C   0  0  0  0  0  0  0  0  0  0  0  0
    5.1408   -1.6964    2.3841 C   0  0  0  0  0  0  0  0  0  0  0  0
    4.7056   -3.3379    1.9840 Cl  0  0  0  0  0  0  0  0  0  0  0  0
    5.8450   -1.4566    3.5259 C   0  0  0  0  0  0  0  0  0  0  0  0
    6.3395   -2.7194    4.6157 Cl  0  0  0  0  0  0  0  0  0  0  0  0
    6.1710   -0.1233    3.7984 C   0  0  0  0  0  0  0  0  0  0  0  0
    5.8244    0.9081    2.9936 C   0  0  0  0  0  0  0  0  0  0  0  0
    6.2499    2.5620    3.3703 Cl  0  0  0  0  0  0  0  0  0  0  0  0
   -1.1250   -0.9026   -0.8698 C   0  0  0  0  0  0  0  0  0  0  0  0
   -3.8817   -0.1980   -1.0381 N   0  0  0  0  0  0  0  0  0  0  0  0
   -4.0652    1.0541   -1.7486 C   0  0  0  0  0  0  0  0  0  0  0  0
   -2.9928    1.8816   -1.7604 C   0  0  0  0  0  0  0  0  0  0  0  0
   -3.0130    3.1217   -2.4158 C   0  0  0  0  0  0  0  0  0  0  0  0
   -4.1691    3.4643   -3.0472 C   0  0  0  0  0  0  0  0  0  0  0  0
   -5.2565    2.6497   -3.0492 C   0  0  0  0  0  0  0  0  0  0  0  0
   -6.6928    3.1806   -3.8930 Cl  0  0  0  0  0  0  0  0  0  0  0  0
   -5.2113    1.4145   -2.3866 C   0  0  0  0  0  0  0  0  0  0  0  0
   -4.1238   -0.3285    0.2909 C   0  0  0  0  0  0  0  0  0  0  0  0
   -4.5531    0.8888    0.9662 N   0  0  0  0  0  0  0  0  0  0  0  0
   -3.9955   -1.4206    0.9437 N   0  0  0  0  0  0  0  0  0  0  0  0
  1  2  1  0
  2  3  2  0
  3  4  1  0
  4  5  1  1
  5  6  2  0
  6  7  1  0
  7  8  2  0
  8  9  1  0
  9 10  1  0
 10 11  1  0
 11 12  1  0
 12 13  1  0
 13 14  1  0
 14 15  1  0
 15 16  2  0
 16 17  1  0
 17 18  1  0
 17 19  2  0
 19 20  1  0
 19 21  1  0
 21 22  2  0
 22 23  1  0
  9 24  2  0
  4 25  1  0
 25 26  1  0
 26 27  2  0
 27 28  1  0
 28 29  2  0
 29 30  1  0
 30 31  1  0
 30 32  2  0
 25 33  1  0
 33 34  1  0
 33 35  2  0
 35  2  1  0
 24  5  1  0
 32 26  1  0
 22 15  1  0
M  END
>  <zinc_id>  (1103) 
ZINC000027732640

>  <ortholog_name>  (1103) 
DRTS_PLAFK

>  <gene_name>  (1103) 
DRTS_PLAFK

>  <affinity>  (1103) 
8.59

>  <chembldocid>  (1103) 
17662

>  <title>  (1103) 
None

>  <reference.pubmed_id>  (1103) 
14736247

>  <reference.doi>  (1103) 
None

>  <reference.chembl_id>  (1103) 
CHEMBL1138835

>  <reference.journal>  (1103) 
J. Med. Chem.

>  <reference.year>  (1103) 
2004

$$$$

     RDKit          3D

 35 38  0  0  0  0  0  0  0  0999 V2000
   -3.4077   -3.8398    0.8368 N   0  0  0  0  0  0  0  0  0  0  0  0
   -3.5681   -2.5450    0.1944 C   0  0  0  0  0  0  0  0  0  0  0  0
   -3.3226   -2.5252   -0.9977 N   0  0  0  0  0  0  0  0  0  0  0  0
   -3.3848   -1.3419   -1.9752 C   0  0  2  0  0  0  0  0  0  0  0  0
   -1.8379   -0.9179   -2.0008 C   0  0  0  0  0  0  0  0  0  0  0  0
   -1.3318   -0.5974   -3.2114 C   0  0  0  0  0  0  0  0  0  0  0  0
    0.0294   -0.2276   -3.2662 C   0  0  0  0  0  0  0  0  0  0  0  0
    0.7559   -0.2171   -2.0819 C   0  0  0  0  0  0  0  0  0  0  0  0
    0.2030   -0.5506   -0.8699 C   0  0  0  0  0  0  0  0  0  0  0  0
    0.9976   -0.5126    0.2410 O   0  0  0  0  0  0  0  0  0  0  0  0
    2.3365   -0.1586    0.2813 C   0  0  0  0  0  0  0  0  0  0  0  0
    2.6517    1.2086   -0.1701 C   0  0  0  0  0  0  0  0  0  0  0  0
    4.0532    1.6620   -0.1618 C   0  0  0  0  0  0  0  0  0  0  0  0
    4.7603    1.6819    1.0158 O   0  0  0  0  0  0  0  0  0  0  0  0
    5.1000    0.6317    1.8222 C   0  0  0  0  0  0  0  0  0  0  0  0
    4.7690   -0.6923    1.5410 C   0  0  0  0  0  0  0  0  0  0  0  0
    5.1408   -1.6964    2.3841 C   0  0  0  0  0  0  0  0  0  0  0  0
    4.7056   -3.3379    1.9840 Cl  0  0  0  0  0  0  0  0  0  0  0  0
    5.8450   -1.4566    3.5259 C   0  0  0  0  0  0  0  0  0  0  0  0
    6.3395   -2.7194    4.6157 Cl  0  0  0  0  0  0  0  0  0  0  0  0
    6.1710   -0.1233    3.7984 C   0  0  0  0  0  0  0  0  0  0  0  0
    5.8244    0.9081    2.9936 C   0  0  0  0  0  0  0  0  0  0  0  0
    6.2499    2.5620    3.3703 Cl  0  0  0  0  0  0  0  0  0  0  0  0
   -1.1250   -0.9026   -0.8698 C   0  0  0  0  0  0  0  0  0  0  0  0
   -3.8817   -0.1980   -1.0381 N   0  0  0  0  0  0  0  0  0  0  0  0
   -4.0652    1.0541   -1.7486 C   0  0  0  0  0  0  0  0  0  0  0  0
   -2.9928    1.8816   -1.7604 C   0  0  0  0  0  0  0  0  0  0  0  0
   -3.0130    3.1217   -2.4158 C   0  0  0  0  0  0  0  0  0  0  0  0
   -4.1691    3.4643   -3.0472 C   0  0  0  0  0  0  0  0  0  0  0  0
   -5.2565    2.6497   -3.0492 C   0  0  0  0  0  0  0  0  0  0  0  0
   -6.6928    3.1806   -3.8930 Cl  0  0  0  0  0  0  0  0  0  0  0  0
   -5.2113    1.4145   -2.3866 C   0  0  0  0  0  0  0  0  0  0  0  0
   -4.1238   -0.3285    0.2909 C   0  0  0  0  0  0  0  0  0  0  0  0
   -4.5531    0.8888    0.9662 N   0  0  0  0  0  0  0  0  0  0  0  0
   -3.9955   -1.4206    0.9437 N   0  0  0  0  0  0  0  0  0  0  0  0
  1  2  1  0
  2  3  2  0
  3  4  1  0
  4  5  1  1
  5  6  2  0
  6  7  1  0
  7  8  2  0
  8  9  1  0
  9 10  1  0
 10 11  1  0
 11 12  1  0
 12 13  1  0
 13 14  1  0
 14 15  1  0
 15 16  2  0
 16 17  1  0
 17 18  1  0
 17 19  2  0
 19 20  1  0
 19 21  1  0
 21 22  2  0
 22 23  1  0
  9 24  2  0
  4 25  1  0
 25 26  1  0
 26 27  2  0
 27 28  1  0
 28 29  2  0
 29 30  1  0
 30 31  1  0
 30 32  2  0
 25 33  1  0
 33 34  1  0
 33 35  2  0
 35  2  1  0
 24  5  1  0
 32 26  1  0
 22 15  1  0
M  END
>  <zinc_id>  (1104) 
ZINC000027732640

>  <ortholog_name>  (1104) 
DRTS_PLAFK

>  <gene_name>  (1104) 
DRTS_PLAFK

>  <affinity>  (1104) 
5.52

>  <chembldocid>  (1104) 
17662

>  <title>  (1104) 
None

>  <reference.pubmed_id>  (1104) 
14736247

>  <reference.doi>  (1104) 
None

>  <reference.chembl_id>  (1104) 
CHEMBL1138835

>  <reference.journal>  (1104) 
J. Med. Chem.

>  <reference.year>  (1104) 
2004

$$$$

     RDKit          3D

 35 38  0  0  0  0  0  0  0  0999 V2000
   -3.4077   -3.8398    0.8368 N   0  0  0  0  0  0  0  0  0  0  0  0
   -3.5681   -2.5450    0.1944 C   0  0  0  0  0  0  0  0  0  0  0  0
   -3.3226   -2.5252   -0.9977 N   0  0  0  0  0  0  0  0  0  0  0  0
   -3.3848   -1.3419   -1.9752 C   0  0  2  0  0  0  0  0  0  0  0  0
   -1.8379   -0.9179   -2.0008 C   0  0  0  0  0  0  0  0  0  0  0  0
   -1.3318   -0.5974   -3.2114 C   0  0  0  0  0  0  0  0  0  0  0  0
    0.0294   -0.2276   -3.2662 C   0  0  0  0  0  0  0  0  0  0  0  0
    0.7559   -0.2171   -2.0819 C   0  0  0  0  0  0  0  0  0  0  0  0
    0.2030   -0.5506   -0.8699 C   0  0  0  0  0  0  0  0  0  0  0  0
    0.9976   -0.5126    0.2410 O   0  0  0  0  0  0  0  0  0  0  0  0
    2.3365   -0.1586    0.2813 C   0  0  0  0  0  0  0  0  0  0  0  0
    2.6517    1.2086   -0.1701 C   0  0  0  0  0  0  0  0  0  0  0  0
    4.0532    1.6620   -0.1618 C   0  0  0  0  0  0  0  0  0  0  0  0
    4.7603    1.6819    1.0158 O   0  0  0  0  0  0  0  0  0  0  0  0
    5.1000    0.6317    1.8222 C   0  0  0  0  0  0  0  0  0  0  0  0
    4.7690   -0.6923    1.5410 C   0  0  0  0  0  0  0  0  0  0  0  0
    5.1408   -1.6964    2.3841 C   0  0  0  0  0  0  0  0  0  0  0  0
    4.7056   -3.3379    1.9840 Cl  0  0  0  0  0  0  0  0  0  0  0  0
    5.8450   -1.4566    3.5259 C   0  0  0  0  0  0  0  0  0  0  0  0
    6.3395   -2.7194    4.6157 Cl  0  0  0  0  0  0  0  0  0  0  0  0
    6.1710   -0.1233    3.7984 C   0  0  0  0  0  0  0  0  0  0  0  0
    5.8244    0.9081    2.9936 C   0  0  0  0  0  0  0  0  0  0  0  0
    6.2499    2.5620    3.3703 Cl  0  0  0  0  0  0  0  0  0  0  0  0
   -1.1250   -0.9026   -0.8698 C   0  0  0  0  0  0  0  0  0  0  0  0
   -3.8817   -0.1980   -1.0381 N   0  0  0  0  0  0  0  0  0  0  0  0
   -4.0652    1.0541   -1.7486 C   0  0  0  0  0  0  0  0  0  0  0  0
   -2.9928    1.8816   -1.7604 C   0  0  0  0  0  0  0  0  0  0  0  0
   -3.0130    3.1217   -2.4158 C   0  0  0  0  0  0  0  0  0  0  0  0
   -4.1691    3.4643   -3.0472 C   0  0  0  0  0  0  0  0  0  0  0  0
   -5.2565    2.6497   -3.0492 C   0  0  0  0  0  0  0  0  0  0  0  0
   -6.6928    3.1806   -3.8930 Cl  0  0  0  0  0  0  0  0  0  0  0  0
   -5.2113    1.4145   -2.3866 C   0  0  0  0  0  0  0  0  0  0  0  0
   -4.1238   -0.3285    0.2909 C   0  0  0  0  0  0  0  0  0  0  0  0
   -4.5531    0.8888    0.9662 N   0  0  0  0  0  0  0  0  0  0  0  0
   -3.9955   -1.4206    0.9437 N   0  0  0  0  0  0  0  0  0  0  0  0
  1  2  1  0
  2  3  2  0
  3  4  1  0
  4  5  1  1
  5  6  2  0
  6  7  1  0
  7  8  2  0
  8  9  1  0
  9 10  1  0
 10 11  1  0
 11 12  1  0
 12 13  1  0
 13 14  1  0
 14 15  1  0
 15 16  2  0
 16 17  1  0
 17 18  1  0
 17 19  2  0
 19 20  1  0
 19 21  1  0
 21 22  2  0
 22 23  1  0
  9 24  2  0
  4 25  1  0
 25 26  1  0
 26 27  2  0
 27 28  1  0
 28 29  2  0
 29 30  1  0
 30 31  1  0
 30 32  2  0
 25 33  1  0
 33 34  1  0
 33 35  2  0
 35  2  1  0
 24  5  1  0
 32 26  1  0
 22 15  1  0
M  END
>  <zinc_id>  (1105) 
ZINC000027732640

>  <ortholog_name>  (1105) 
DRTS_PLAFK

>  <gene_name>  (1105) 
DRTS_PLAFK

>  <affinity>  (1105) 
5.49

>  <chembldocid>  (1105) 
17662

>  <title>  (1105) 
None

>  <reference.pubmed_id>  (1105) 
14736247

>  <reference.doi>  (1105) 
None

>  <reference.chembl_id>  (1105) 
CHEMBL1138835

>  <reference.journal>  (1105) 
J. Med. Chem.

>  <reference.year>  (1105) 
2004

$$$$

     RDKit          3D

 35 38  0  0  0  0  0  0  0  0999 V2000
   -3.4077   -3.8398    0.8368 N   0  0  0  0  0  0  0  0  0  0  0  0
   -3.5681   -2.5450    0.1944 C   0  0  0  0  0  0  0  0  0  0  0  0
   -3.3226   -2.5252   -0.9977 N   0  0  0  0  0  0  0  0  0  0  0  0
   -3.3848   -1.3419   -1.9752 C   0  0  2  0  0  0  0  0  0  0  0  0
   -1.8379   -0.9179   -2.0008 C   0  0  0  0  0  0  0  0  0  0  0  0
   -1.3318   -0.5974   -3.2114 C   0  0  0  0  0  0  0  0  0  0  0  0
    0.0294   -0.2276   -3.2662 C   0  0  0  0  0  0  0  0  0  0  0  0
    0.7559   -0.2171   -2.0819 C   0  0  0  0  0  0  0  0  0  0  0  0
    0.2030   -0.5506   -0.8699 C   0  0  0  0  0  0  0  0  0  0  0  0
    0.9976   -0.5126    0.2410 O   0  0  0  0  0  0  0  0  0  0  0  0
    2.3365   -0.1586    0.2813 C   0  0  0  0  0  0  0  0  0  0  0  0
    2.6517    1.2086   -0.1701 C   0  0  0  0  0  0  0  0  0  0  0  0
    4.0532    1.6620   -0.1618 C   0  0  0  0  0  0  0  0  0  0  0  0
    4.7603    1.6819    1.0158 O   0  0  0  0  0  0  0  0  0  0  0  0
    5.1000    0.6317    1.8222 C   0  0  0  0  0  0  0  0  0  0  0  0
    4.7690   -0.6923    1.5410 C   0  0  0  0  0  0  0  0  0  0  0  0
    5.1408   -1.6964    2.3841 C   0  0  0  0  0  0  0  0  0  0  0  0
    4.7056   -3.3379    1.9840 Cl  0  0  0  0  0  0  0  0  0  0  0  0
    5.8450   -1.4566    3.5259 C   0  0  0  0  0  0  0  0  0  0  0  0
    6.3395   -2.7194    4.6157 Cl  0  0  0  0  0  0  0  0  0  0  0  0
    6.1710   -0.1233    3.7984 C   0  0  0  0  0  0  0  0  0  0  0  0
    5.8244    0.9081    2.9936 C   0  0  0  0  0  0  0  0  0  0  0  0
    6.2499    2.5620    3.3703 Cl  0  0  0  0  0  0  0  0  0  0  0  0
   -1.1250   -0.9026   -0.8698 C   0  0  0  0  0  0  0  0  0  0  0  0
   -3.8817   -0.1980   -1.0381 N   0  0  0  0  0  0  0  0  0  0  0  0
   -4.0652    1.0541   -1.7486 C   0  0  0  0  0  0  0  0  0  0  0  0
   -2.9928    1.8816   -1.7604 C   0  0  0  0  0  0  0  0  0  0  0  0
   -3.0130    3.1217   -2.4158 C   0  0  0  0  0  0  0  0  0  0  0  0
   -4.1691    3.4643   -3.0472 C   0  0  0  0  0  0  0  0  0  0  0  0
   -5.2565    2.6497   -3.0492 C   0  0  0  0  0  0  0  0  0  0  0  0
   -6.6928    3.1806   -3.8930 Cl  0  0  0  0  0  0  0  0  0  0  0  0
   -5.2113    1.4145   -2.3866 C   0  0  0  0  0  0  0  0  0  0  0  0
   -4.1238   -0.3285    0.2909 C   0  0  0  0  0  0  0  0  0  0  0  0
   -4.5531    0.8888    0.9662 N   0  0  0  0  0  0  0  0  0  0  0  0
   -3.9955   -1.4206    0.9437 N   0  0  0  0  0  0  0  0  0  0  0  0
  1  2  1  0
  2  3  2  0
  3  4  1  0
  4  5  1  1
  5  6  2  0
  6  7  1  0
  7  8  2  0
  8  9  1  0
  9 10  1  0
 10 11  1  0
 11 12  1  0
 12 13  1  0
 13 14  1  0
 14 15  1  0
 15 16  2  0
 16 17  1  0
 17 18  1  0
 17 19  2  0
 19 20  1  0
 19 21  1  0
 21 22  2  0
 22 23  1  0
  9 24  2  0
  4 25  1  0
 25 26  1  0
 26 27  2  0
 27 28  1  0
 28 29  2  0
 29 30  1  0
 30 31  1  0
 30 32  2  0
 25 33  1  0
 33 34  1  0
 33 35  2  0
 35  2  1  0
 24  5  1  0
 32 26  1  0
 22 15  1  0
M  END
>  <zinc_id>  (1106) 
ZINC000027732640

>  <ortholog_name>  (1106) 
DRTS_PLAFK

>  <gene_name>  (1106) 
DRTS_PLAFK

>  <affinity>  (1106) 
6.43

>  <chembldocid>  (1106) 
17662

>  <title>  (1106) 
None

>  <reference.pubmed_id>  (1106) 
14736247

>  <reference.doi>  (1106) 
None

>  <reference.chembl_id>  (1106) 
CHEMBL1138835

>  <reference.journal>  (1106) 
J. Med. Chem.

>  <reference.year>  (1106) 
2004

$$$$

     RDKit          3D

 35 38  0  0  0  0  0  0  0  0999 V2000
   -3.4077   -3.8398    0.8368 N   0  0  0  0  0  0  0  0  0  0  0  0
   -3.5681   -2.5450    0.1944 C   0  0  0  0  0  0  0  0  0  0  0  0
   -3.3226   -2.5252   -0.9977 N   0  0  0  0  0  0  0  0  0  0  0  0
   -3.3848   -1.3419   -1.9752 C   0  0  2  0  0  0  0  0  0  0  0  0
   -1.8379   -0.9179   -2.0008 C   0  0  0  0  0  0  0  0  0  0  0  0
   -1.3318   -0.5974   -3.2114 C   0  0  0  0  0  0  0  0  0  0  0  0
    0.0294   -0.2276   -3.2662 C   0  0  0  0  0  0  0  0  0  0  0  0
    0.7559   -0.2171   -2.0819 C   0  0  0  0  0  0  0  0  0  0  0  0
    0.2030   -0.5506   -0.8699 C   0  0  0  0  0  0  0  0  0  0  0  0
    0.9976   -0.5126    0.2410 O   0  0  0  0  0  0  0  0  0  0  0  0
    2.3365   -0.1586    0.2813 C   0  0  0  0  0  0  0  0  0  0  0  0
    2.6517    1.2086   -0.1701 C   0  0  0  0  0  0  0  0  0  0  0  0
    4.0532    1.6620   -0.1618 C   0  0  0  0  0  0  0  0  0  0  0  0
    4.7603    1.6819    1.0158 O   0  0  0  0  0  0  0  0  0  0  0  0
    5.1000    0.6317    1.8222 C   0  0  0  0  0  0  0  0  0  0  0  0
    4.7690   -0.6923    1.5410 C   0  0  0  0  0  0  0  0  0  0  0  0
    5.1408   -1.6964    2.3841 C   0  0  0  0  0  0  0  0  0  0  0  0
    4.7056   -3.3379    1.9840 Cl  0  0  0  0  0  0  0  0  0  0  0  0
    5.8450   -1.4566    3.5259 C   0  0  0  0  0  0  0  0  0  0  0  0
    6.3395   -2.7194    4.6157 Cl  0  0  0  0  0  0  0  0  0  0  0  0
    6.1710   -0.1233    3.7984 C   0  0  0  0  0  0  0  0  0  0  0  0
    5.8244    0.9081    2.9936 C   0  0  0  0  0  0  0  0  0  0  0  0
    6.2499    2.5620    3.3703 Cl  0  0  0  0  0  0  0  0  0  0  0  0
   -1.1250   -0.9026   -0.8698 C   0  0  0  0  0  0  0  0  0  0  0  0
   -3.8817   -0.1980   -1.0381 N   0  0  0  0  0  0  0  0  0  0  0  0
   -4.0652    1.0541   -1.7486 C   0  0  0  0  0  0  0  0  0  0  0  0
   -2.9928    1.8816   -1.7604 C   0  0  0  0  0  0  0  0  0  0  0  0
   -3.0130    3.1217   -2.4158 C   0  0  0  0  0  0  0  0  0  0  0  0
   -4.1691    3.4643   -3.0472 C   0  0  0  0  0  0  0  0  0  0  0  0
   -5.2565    2.6497   -3.0492 C   0  0  0  0  0  0  0  0  0  0  0  0
   -6.6928    3.1806   -3.8930 Cl  0  0  0  0  0  0  0  0  0  0  0  0
   -5.2113    1.4145   -2.3866 C   0  0  0  0  0  0  0  0  0  0  0  0
   -4.1238   -0.3285    0.2909 C   0  0  0  0  0  0  0  0  0  0  0  0
   -4.5531    0.8888    0.9662 N   0  0  0  0  0  0  0  0  0  0  0  0
   -3.9955   -1.4206    0.9437 N   0  0  0  0  0  0  0  0  0  0  0  0
  1  2  1  0
  2  3  2  0
  3  4  1  0
  4  5  1  1
  5  6  2  0
  6  7  1  0
  7  8  2  0
  8  9  1  0
  9 10  1  0
 10 11  1  0
 11 12  1  0
 12 13  1  0
 13 14  1  0
 14 15  1  0
 15 16  2  0
 16 17  1  0
 17 18  1  0
 17 19  2  0
 19 20  1  0
 19 21  1  0
 21 22  2  0
 22 23  1  0
  9 24  2  0
  4 25  1  0
 25 26  1  0
 26 27  2  0
 27 28  1  0
 28 29  2  0
 29 30  1  0
 30 31  1  0
 30 32  2  0
 25 33  1  0
 33 34  1  0
 33 35  2  0
 35  2  1  0
 24  5  1  0
 32 26  1  0
 22 15  1  0
M  END
>  <zinc_id>  (1107) 
ZINC000027732640

>  <ortholog_name>  (1107) 
DRTS_PLAFK

>  <gene_name>  (1107) 
DRTS_PLAFK

>  <affinity>  (1107) 
8.40

>  <chembldocid>  (1107) 
17662

>  <title>  (1107) 
None

>  <reference.pubmed_id>  (1107) 
14736247

>  <reference.doi>  (1107) 
None

>  <reference.chembl_id>  (1107) 
CHEMBL1138835

>  <reference.journal>  (1107) 
J. Med. Chem.

>  <reference.year>  (1107) 
2004

$$$$

     RDKit          3D

 35 38  0  0  0  0  0  0  0  0999 V2000
   -3.4077   -3.8398    0.8368 N   0  0  0  0  0  0  0  0  0  0  0  0
   -3.5681   -2.5450    0.1944 C   0  0  0  0  0  0  0  0  0  0  0  0
   -3.3226   -2.5252   -0.9977 N   0  0  0  0  0  0  0  0  0  0  0  0
   -3.3848   -1.3419   -1.9752 C   0  0  2  0  0  0  0  0  0  0  0  0
   -1.8379   -0.9179   -2.0008 C   0  0  0  0  0  0  0  0  0  0  0  0
   -1.3318   -0.5974   -3.2114 C   0  0  0  0  0  0  0  0  0  0  0  0
    0.0294   -0.2276   -3.2662 C   0  0  0  0  0  0  0  0  0  0  0  0
    0.7559   -0.2171   -2.0819 C   0  0  0  0  0  0  0  0  0  0  0  0
    0.2030   -0.5506   -0.8699 C   0  0  0  0  0  0  0  0  0  0  0  0
    0.9976   -0.5126    0.2410 O   0  0  0  0  0  0  0  0  0  0  0  0
    2.3365   -0.1586    0.2813 C   0  0  0  0  0  0  0  0  0  0  0  0
    2.6517    1.2086   -0.1701 C   0  0  0  0  0  0  0  0  0  0  0  0
    4.0532    1.6620   -0.1618 C   0  0  0  0  0  0  0  0  0  0  0  0
    4.7603    1.6819    1.0158 O   0  0  0  0  0  0  0  0  0  0  0  0
    5.1000    0.6317    1.8222 C   0  0  0  0  0  0  0  0  0  0  0  0
    4.7690   -0.6923    1.5410 C   0  0  0  0  0  0  0  0  0  0  0  0
    5.1408   -1.6964    2.3841 C   0  0  0  0  0  0  0  0  0  0  0  0
    4.7056   -3.3379    1.9840 Cl  0  0  0  0  0  0  0  0  0  0  0  0
    5.8450   -1.4566    3.5259 C   0  0  0  0  0  0  0  0  0  0  0  0
    6.3395   -2.7194    4.6157 Cl  0  0  0  0  0  0  0  0  0  0  0  0
    6.1710   -0.1233    3.7984 C   0  0  0  0  0  0  0  0  0  0  0  0
    5.8244    0.9081    2.9936 C   0  0  0  0  0  0  0  0  0  0  0  0
    6.2499    2.5620    3.3703 Cl  0  0  0  0  0  0  0  0  0  0  0  0
   -1.1250   -0.9026   -0.8698 C   0  0  0  0  0  0  0  0  0  0  0  0
   -3.8817   -0.1980   -1.0381 N   0  0  0  0  0  0  0  0  0  0  0  0
   -4.0652    1.0541   -1.7486 C   0  0  0  0  0  0  0  0  0  0  0  0
   -2.9928    1.8816   -1.7604 C   0  0  0  0  0  0  0  0  0  0  0  0
   -3.0130    3.1217   -2.4158 C   0  0  0  0  0  0  0  0  0  0  0  0
   -4.1691    3.4643   -3.0472 C   0  0  0  0  0  0  0  0  0  0  0  0
   -5.2565    2.6497   -3.0492 C   0  0  0  0  0  0  0  0  0  0  0  0
   -6.6928    3.1806   -3.8930 Cl  0  0  0  0  0  0  0  0  0  0  0  0
   -5.2113    1.4145   -2.3866 C   0  0  0  0  0  0  0  0  0  0  0  0
   -4.1238   -0.3285    0.2909 C   0  0  0  0  0  0  0  0  0  0  0  0
   -4.5531    0.8888    0.9662 N   0  0  0  0  0  0  0  0  0  0  0  0
   -3.9955   -1.4206    0.9437 N   0  0  0  0  0  0  0  0  0  0  0  0
  1  2  1  0
  2  3  2  0
  3  4  1  0
  4  5  1  1
  5  6  2  0
  6  7  1  0
  7  8  2  0
  8  9  1  0
  9 10  1  0
 10 11  1  0
 11 12  1  0
 12 13  1  0
 13 14  1  0
 14 15  1  0
 15 16  2  0
 16 17  1  0
 17 18  1  0
 17 19  2  0
 19 20  1  0
 19 21  1  0
 21 22  2  0
 22 23  1  0
  9 24  2  0
  4 25  1  0
 25 26  1  0
 26 27  2  0
 27 28  1  0
 28 29  2  0
 29 30  1  0
 30 31  1  0
 30 32  2  0
 25 33  1  0
 33 34  1  0
 33 35  2  0
 35  2  1  0
 24  5  1  0
 32 26  1  0
 22 15  1  0
M  END
>  <zinc_id>  (1108) 
ZINC000027732640

>  <ortholog_name>  (1108) 
DRTS_PLAFK

>  <gene_name>  (1108) 
DRTS_PLAFK

>  <affinity>  (1108) 
8.35

>  <chembldocid>  (1108) 
17662

>  <title>  (1108) 
None

>  <reference.pubmed_id>  (1108) 
14736247

>  <reference.doi>  (1108) 
None

>  <reference.chembl_id>  (1108) 
CHEMBL1138835

>  <reference.journal>  (1108) 
J. Med. Chem.

>  <reference.year>  (1108) 
2004

$$$$

     RDKit          3D

 35 38  0  0  0  0  0  0  0  0999 V2000
   -3.4077   -3.8398    0.8368 N   0  0  0  0  0  0  0  0  0  0  0  0
   -3.5681   -2.5450    0.1944 C   0  0  0  0  0  0  0  0  0  0  0  0
   -3.3226   -2.5252   -0.9977 N   0  0  0  0  0  0  0  0  0  0  0  0
   -3.3848   -1.3419   -1.9752 C   0  0  2  0  0  0  0  0  0  0  0  0
   -1.8379   -0.9179   -2.0008 C   0  0  0  0  0  0  0  0  0  0  0  0
   -1.3318   -0.5974   -3.2114 C   0  0  0  0  0  0  0  0  0  0  0  0
    0.0294   -0.2276   -3.2662 C   0  0  0  0  0  0  0  0  0  0  0  0
    0.7559   -0.2171   -2.0819 C   0  0  0  0  0  0  0  0  0  0  0  0
    0.2030   -0.5506   -0.8699 C   0  0  0  0  0  0  0  0  0  0  0  0
    0.9976   -0.5126    0.2410 O   0  0  0  0  0  0  0  0  0  0  0  0
    2.3365   -0.1586    0.2813 C   0  0  0  0  0  0  0  0  0  0  0  0
    2.6517    1.2086   -0.1701 C   0  0  0  0  0  0  0  0  0  0  0  0
    4.0532    1.6620   -0.1618 C   0  0  0  0  0  0  0  0  0  0  0  0
    4.7603    1.6819    1.0158 O   0  0  0  0  0  0  0  0  0  0  0  0
    5.1000    0.6317    1.8222 C   0  0  0  0  0  0  0  0  0  0  0  0
    4.7690   -0.6923    1.5410 C   0  0  0  0  0  0  0  0  0  0  0  0
    5.1408   -1.6964    2.3841 C   0  0  0  0  0  0  0  0  0  0  0  0
    4.7056   -3.3379    1.9840 Cl  0  0  0  0  0  0  0  0  0  0  0  0
    5.8450   -1.4566    3.5259 C   0  0  0  0  0  0  0  0  0  0  0  0
    6.3395   -2.7194    4.6157 Cl  0  0  0  0  0  0  0  0  0  0  0  0
    6.1710   -0.1233    3.7984 C   0  0  0  0  0  0  0  0  0  0  0  0
    5.8244    0.9081    2.9936 C   0  0  0  0  0  0  0  0  0  0  0  0
    6.2499    2.5620    3.3703 Cl  0  0  0  0  0  0  0  0  0  0  0  0
   -1.1250   -0.9026   -0.8698 C   0  0  0  0  0  0  0  0  0  0  0  0
   -3.8817   -0.1980   -1.0381 N   0  0  0  0  0  0  0  0  0  0  0  0
   -4.0652    1.0541   -1.7486 C   0  0  0  0  0  0  0  0  0  0  0  0
   -2.9928    1.8816   -1.7604 C   0  0  0  0  0  0  0  0  0  0  0  0
   -3.0130    3.1217   -2.4158 C   0  0  0  0  0  0  0  0  0  0  0  0
   -4.1691    3.4643   -3.0472 C   0  0  0  0  0  0  0  0  0  0  0  0
   -5.2565    2.6497   -3.0492 C   0  0  0  0  0  0  0  0  0  0  0  0
   -6.6928    3.1806   -3.8930 Cl  0  0  0  0  0  0  0  0  0  0  0  0
   -5.2113    1.4145   -2.3866 C   0  0  0  0  0  0  0  0  0  0  0  0
   -4.1238   -0.3285    0.2909 C   0  0  0  0  0  0  0  0  0  0  0  0
   -4.5531    0.8888    0.9662 N   0  0  0  0  0  0  0  0  0  0  0  0
   -3.9955   -1.4206    0.9437 N   0  0  0  0  0  0  0  0  0  0  0  0
  1  2  1  0
  2  3  2  0
  3  4  1  0
  4  5  1  1
  5  6  2  0
  6  7  1  0
  7  8  2  0
  8  9  1  0
  9 10  1  0
 10 11  1  0
 11 12  1  0
 12 13  1  0
 13 14  1  0
 14 15  1  0
 15 16  2  0
 16 17  1  0
 17 18  1  0
 17 19  2  0
 19 20  1  0
 19 21  1  0
 21 22  2  0
 22 23  1  0
  9 24  2  0
  4 25  1  0
 25 26  1  0
 26 27  2  0
 27 28  1  0
 28 29  2  0
 29 30  1  0
 30 31  1  0
 30 32  2  0
 25 33  1  0
 33 34  1  0
 33 35  2  0
 35  2  1  0
 24  5  1  0
 32 26  1  0
 22 15  1  0
M  END
>  <zinc_id>  (1109) 
ZINC000027732640

>  <ortholog_name>  (1109) 
DRTS_PLAFK

>  <gene_name>  (1109) 
DRTS_PLAFK

>  <affinity>  (1109) 
5.28

>  <chembldocid>  (1109) 
17662

>  <title>  (1109) 
None

>  <reference.pubmed_id>  (1109) 
14736247

>  <reference.doi>  (1109) 
None

>  <reference.chembl_id>  (1109) 
CHEMBL1138835

>  <reference.journal>  (1109) 
J. Med. Chem.

>  <reference.year>  (1109) 
2004

$$$$

     RDKit          3D

 35 38  0  0  0  0  0  0  0  0999 V2000
   -3.4077   -3.8398    0.8368 N   0  0  0  0  0  0  0  0  0  0  0  0
   -3.5681   -2.5450    0.1944 C   0  0  0  0  0  0  0  0  0  0  0  0
   -3.3226   -2.5252   -0.9977 N   0  0  0  0  0  0  0  0  0  0  0  0
   -3.3848   -1.3419   -1.9752 C   0  0  2  0  0  0  0  0  0  0  0  0
   -1.8379   -0.9179   -2.0008 C   0  0  0  0  0  0  0  0  0  0  0  0
   -1.3318   -0.5974   -3.2114 C   0  0  0  0  0  0  0  0  0  0  0  0
    0.0294   -0.2276   -3.2662 C   0  0  0  0  0  0  0  0  0  0  0  0
    0.7559   -0.2171   -2.0819 C   0  0  0  0  0  0  0  0  0  0  0  0
    0.2030   -0.5506   -0.8699 C   0  0  0  0  0  0  0  0  0  0  0  0
    0.9976   -0.5126    0.2410 O   0  0  0  0  0  0  0  0  0  0  0  0
    2.3365   -0.1586    0.2813 C   0  0  0  0  0  0  0  0  0  0  0  0
    2.6517    1.2086   -0.1701 C   0  0  0  0  0  0  0  0  0  0  0  0
    4.0532    1.6620   -0.1618 C   0  0  0  0  0  0  0  0  0  0  0  0
    4.7603    1.6819    1.0158 O   0  0  0  0  0  0  0  0  0  0  0  0
    5.1000    0.6317    1.8222 C   0  0  0  0  0  0  0  0  0  0  0  0
    4.7690   -0.6923    1.5410 C   0  0  0  0  0  0  0  0  0  0  0  0
    5.1408   -1.6964    2.3841 C   0  0  0  0  0  0  0  0  0  0  0  0
    4.7056   -3.3379    1.9840 Cl  0  0  0  0  0  0  0  0  0  0  0  0
    5.8450   -1.4566    3.5259 C   0  0  0  0  0  0  0  0  0  0  0  0
    6.3395   -2.7194    4.6157 Cl  0  0  0  0  0  0  0  0  0  0  0  0
    6.1710   -0.1233    3.7984 C   0  0  0  0  0  0  0  0  0  0  0  0
    5.8244    0.9081    2.9936 C   0  0  0  0  0  0  0  0  0  0  0  0
    6.2499    2.5620    3.3703 Cl  0  0  0  0  0  0  0  0  0  0  0  0
   -1.1250   -0.9026   -0.8698 C   0  0  0  0  0  0  0  0  0  0  0  0
   -3.8817   -0.1980   -1.0381 N   0  0  0  0  0  0  0  0  0  0  0  0
   -4.0652    1.0541   -1.7486 C   0  0  0  0  0  0  0  0  0  0  0  0
   -2.9928    1.8816   -1.7604 C   0  0  0  0  0  0  0  0  0  0  0  0
   -3.0130    3.1217   -2.4158 C   0  0  0  0  0  0  0  0  0  0  0  0
   -4.1691    3.4643   -3.0472 C   0  0  0  0  0  0  0  0  0  0  0  0
   -5.2565    2.6497   -3.0492 C   0  0  0  0  0  0  0  0  0  0  0  0
   -6.6928    3.1806   -3.8930 Cl  0  0  0  0  0  0  0  0  0  0  0  0
   -5.2113    1.4145   -2.3866 C   0  0  0  0  0  0  0  0  0  0  0  0
   -4.1238   -0.3285    0.2909 C   0  0  0  0  0  0  0  0  0  0  0  0
   -4.5531    0.8888    0.9662 N   0  0  0  0  0  0  0  0  0  0  0  0
   -3.9955   -1.4206    0.9437 N   0  0  0  0  0  0  0  0  0  0  0  0
  1  2  1  0
  2  3  2  0
  3  4  1  0
  4  5  1  1
  5  6  2  0
  6  7  1  0
  7  8  2  0
  8  9  1  0
  9 10  1  0
 10 11  1  0
 11 12  1  0
 12 13  1  0
 13 14  1  0
 14 15  1  0
 15 16  2  0
 16 17  1  0
 17 18  1  0
 17 19  2  0
 19 20  1  0
 19 21  1  0
 21 22  2  0
 22 23  1  0
  9 24  2  0
  4 25  1  0
 25 26  1  0
 26 27  2  0
 27 28  1  0
 28 29  2  0
 29 30  1  0
 30 31  1  0
 30 32  2  0
 25 33  1  0
 33 34  1  0
 33 35  2  0
 35  2  1  0
 24  5  1  0
 32 26  1  0
 22 15  1  0
M  END
>  <zinc_id>  (1110) 
ZINC000027732640

>  <ortholog_name>  (1110) 
DRTS_PLAFK

>  <gene_name>  (1110) 
DRTS_PLAFK

>  <affinity>  (1110) 
5.13

>  <chembldocid>  (1110) 
17662

>  <title>  (1110) 
None

>  <reference.pubmed_id>  (1110) 
14736247

>  <reference.doi>  (1110) 
None

>  <reference.chembl_id>  (1110) 
CHEMBL1138835

>  <reference.journal>  (1110) 
J. Med. Chem.

>  <reference.year>  (1110) 
2004

$$$$

     RDKit          3D

 35 38  0  0  0  0  0  0  0  0999 V2000
   -3.4077   -3.8398    0.8368 N   0  0  0  0  0  0  0  0  0  0  0  0
   -3.5681   -2.5450    0.1944 C   0  0  0  0  0  0  0  0  0  0  0  0
   -3.3226   -2.5252   -0.9977 N   0  0  0  0  0  0  0  0  0  0  0  0
   -3.3848   -1.3419   -1.9752 C   0  0  2  0  0  0  0  0  0  0  0  0
   -1.8379   -0.9179   -2.0008 C   0  0  0  0  0  0  0  0  0  0  0  0
   -1.3318   -0.5974   -3.2114 C   0  0  0  0  0  0  0  0  0  0  0  0
    0.0294   -0.2276   -3.2662 C   0  0  0  0  0  0  0  0  0  0  0  0
    0.7559   -0.2171   -2.0819 C   0  0  0  0  0  0  0  0  0  0  0  0
    0.2030   -0.5506   -0.8699 C   0  0  0  0  0  0  0  0  0  0  0  0
    0.9976   -0.5126    0.2410 O   0  0  0  0  0  0  0  0  0  0  0  0
    2.3365   -0.1586    0.2813 C   0  0  0  0  0  0  0  0  0  0  0  0
    2.6517    1.2086   -0.1701 C   0  0  0  0  0  0  0  0  0  0  0  0
    4.0532    1.6620   -0.1618 C   0  0  0  0  0  0  0  0  0  0  0  0
    4.7603    1.6819    1.0158 O   0  0  0  0  0  0  0  0  0  0  0  0
    5.1000    0.6317    1.8222 C   0  0  0  0  0  0  0  0  0  0  0  0
    4.7690   -0.6923    1.5410 C   0  0  0  0  0  0  0  0  0  0  0  0
    5.1408   -1.6964    2.3841 C   0  0  0  0  0  0  0  0  0  0  0  0
    4.7056   -3.3379    1.9840 Cl  0  0  0  0  0  0  0  0  0  0  0  0
    5.8450   -1.4566    3.5259 C   0  0  0  0  0  0  0  0  0  0  0  0
    6.3395   -2.7194    4.6157 Cl  0  0  0  0  0  0  0  0  0  0  0  0
    6.1710   -0.1233    3.7984 C   0  0  0  0  0  0  0  0  0  0  0  0
    5.8244    0.9081    2.9936 C   0  0  0  0  0  0  0  0  0  0  0  0
    6.2499    2.5620    3.3703 Cl  0  0  0  0  0  0  0  0  0  0  0  0
   -1.1250   -0.9026   -0.8698 C   0  0  0  0  0  0  0  0  0  0  0  0
   -3.8817   -0.1980   -1.0381 N   0  0  0  0  0  0  0  0  0  0  0  0
   -4.0652    1.0541   -1.7486 C   0  0  0  0  0  0  0  0  0  0  0  0
   -2.9928    1.8816   -1.7604 C   0  0  0  0  0  0  0  0  0  0  0  0
   -3.0130    3.1217   -2.4158 C   0  0  0  0  0  0  0  0  0  0  0  0
   -4.1691    3.4643   -3.0472 C   0  0  0  0  0  0  0  0  0  0  0  0
   -5.2565    2.6497   -3.0492 C   0  0  0  0  0  0  0  0  0  0  0  0
   -6.6928    3.1806   -3.8930 Cl  0  0  0  0  0  0  0  0  0  0  0  0
   -5.2113    1.4145   -2.3866 C   0  0  0  0  0  0  0  0  0  0  0  0
   -4.1238   -0.3285    0.2909 C   0  0  0  0  0  0  0  0  0  0  0  0
   -4.5531    0.8888    0.9662 N   0  0  0  0  0  0  0  0  0  0  0  0
   -3.9955   -1.4206    0.9437 N   0  0  0  0  0  0  0  0  0  0  0  0
  1  2  1  0
  2  3  2  0
  3  4  1  0
  4  5  1  1
  5  6  2  0
  6  7  1  0
  7  8  2  0
  8  9  1  0
  9 10  1  0
 10 11  1  0
 11 12  1  0
 12 13  1  0
 13 14  1  0
 14 15  1  0
 15 16  2  0
 16 17  1  0
 17 18  1  0
 17 19  2  0
 19 20  1  0
 19 21  1  0
 21 22  2  0
 22 23  1  0
  9 24  2  0
  4 25  1  0
 25 26  1  0
 26 27  2  0
 27 28  1  0
 28 29  2  0
 29 30  1  0
 30 31  1  0
 30 32  2  0
 25 33  1  0
 33 34  1  0
 33 35  2  0
 35  2  1  0
 24  5  1  0
 32 26  1  0
 22 15  1  0
M  END
>  <zinc_id>  (1111) 
ZINC000027732640

>  <ortholog_name>  (1111) 
DRTS_PLAFK

>  <gene_name>  (1111) 
DRTS_PLAFK

>  <affinity>  (1111) 
5.07

>  <chembldocid>  (1111) 
17662

>  <title>  (1111) 
None

>  <reference.pubmed_id>  (1111) 
14736247

>  <reference.doi>  (1111) 
None

>  <reference.chembl_id>  (1111) 
CHEMBL1138835

>  <reference.journal>  (1111) 
J. Med. Chem.

>  <reference.year>  (1111) 
2004

$$$$

     RDKit          3D

 23 24  0  0  0  0  0  0  0  0999 V2000
    4.0346    2.6961   -0.8360 C   0  0  0  0  0  0  0  0  0  0  0  0
    5.4017    2.4981   -1.4806 C   0  0  0  0  0  0  0  0  0  0  0  0
    5.7906    1.0431   -1.1988 C   0  0  0  0  0  0  0  0  0  0  0  0
    4.6929    0.1938   -1.8499 C   0  0  0  0  0  0  0  0  0  0  0  0
    4.9750   -1.2744   -1.6330 C   0  0  0  0  0  0  0  0  0  0  0  0
    4.9959   -1.4773   -0.1147 C   0  0  0  0  0  0  0  0  0  0  0  0
    3.6365   -1.0805    0.4591 C   0  0  0  0  0  0  0  0  0  0  0  0
    2.6095   -1.8849   -0.1088 O   0  0  0  0  0  0  0  0  0  0  0  0
    1.2984   -1.6507    0.3109 C   0  0  0  0  0  0  0  0  0  0  0  0
    0.3044   -2.4236   -0.2334 C   0  0  0  0  0  0  0  0  0  0  0  0
   -1.0281   -2.2263    0.1562 C   0  0  0  0  0  0  0  0  0  0  0  0
   -1.3433   -1.2634    1.0801 C   0  0  0  0  0  0  0  0  0  0  0  0
   -2.7326   -1.0424    1.5022 C   0  0  0  0  0  0  0  0  0  0  0  0
   -3.4782   -0.0643    0.7063 C   0  0  0  0  0  0  0  0  0  0  0  0
   -4.4080   -0.5796   -0.2072 C   0  0  0  0  0  0  0  0  0  0  0  0
   -5.0924    0.3194   -0.9371 N   0  0  0  0  0  0  0  0  0  0  0  0
   -4.9299    1.6434   -0.8329 C   0  0  0  0  0  0  0  0  0  0  0  0
   -5.6806    2.5753   -1.6313 N   0  0  0  0  0  0  0  0  0  0  0  0
   -4.0271    2.1099    0.0559 N   0  0  0  0  0  0  0  0  0  0  0  0
   -3.2941    1.2968    0.8308 C   0  0  0  0  0  0  0  0  0  0  0  0
   -2.3481    1.7904    1.7624 N   0  0  0  0  0  0  0  0  0  0  0  0
   -0.3416   -0.5001    1.6143 C   0  0  0  0  0  0  0  0  0  0  0  0
    0.9647   -0.6987    1.2275 C   0  0  0  0  0  0  0  0  0  0  0  0
  1  2  1  0
  2  3  1  0
  3  4  1  0
  4  5  1  0
  5  6  1  0
  6  7  1  0
  7  8  1  0
  8  9  1  0
  9 10  2  0
 10 11  1  0
 11 12  2  0
 12 13  1  0
 13 14  1  0
 14 15  2  0
 15 16  1  0
 16 17  2  0
 17 18  1  0
 17 19  1  0
 19 20  2  0
 20 21  1  0
 12 22  1  0
 22 23  2  0
 23  9  1  0
 20 14  1  0
M  END
>  <zinc_id>  (1112) 
ZINC000034801983

>  <ortholog_name>  (1112) 
DRTS_PLAFK

>  <gene_name>  (1112) 
DRTS_PLAFK

>  <affinity>  (1112) 
5.86

>  <chembldocid>  (1112) 
17636

>  <title>  (1112) 
None

>  <reference.pubmed_id>  (1112) 
14711307

>  <reference.doi>  (1112) 
None

>  <reference.chembl_id>  (1112) 
CHEMBL1148379

>  <reference.journal>  (1112) 
J. Med. Chem.

>  <reference.year>  (1112) 
2004

$$$$

     RDKit          3D

 23 24  0  0  0  0  0  0  0  0999 V2000
    4.0346    2.6961   -0.8360 C   0  0  0  0  0  0  0  0  0  0  0  0
    5.4017    2.4981   -1.4806 C   0  0  0  0  0  0  0  0  0  0  0  0
    5.7906    1.0431   -1.1988 C   0  0  0  0  0  0  0  0  0  0  0  0
    4.6929    0.1938   -1.8499 C   0  0  0  0  0  0  0  0  0  0  0  0
    4.9750   -1.2744   -1.6330 C   0  0  0  0  0  0  0  0  0  0  0  0
    4.9959   -1.4773   -0.1147 C   0  0  0  0  0  0  0  0  0  0  0  0
    3.6365   -1.0805    0.4591 C   0  0  0  0  0  0  0  0  0  0  0  0
    2.6095   -1.8849   -0.1088 O   0  0  0  0  0  0  0  0  0  0  0  0
    1.2984   -1.6507    0.3109 C   0  0  0  0  0  0  0  0  0  0  0  0
    0.3044   -2.4236   -0.2334 C   0  0  0  0  0  0  0  0  0  0  0  0
   -1.0281   -2.2263    0.1562 C   0  0  0  0  0  0  0  0  0  0  0  0
   -1.3433   -1.2634    1.0801 C   0  0  0  0  0  0  0  0  0  0  0  0
   -2.7326   -1.0424    1.5022 C   0  0  0  0  0  0  0  0  0  0  0  0
   -3.4782   -0.0643    0.7063 C   0  0  0  0  0  0  0  0  0  0  0  0
   -4.4080   -0.5796   -0.2072 C   0  0  0  0  0  0  0  0  0  0  0  0
   -5.0924    0.3194   -0.9371 N   0  0  0  0  0  0  0  0  0  0  0  0
   -4.9299    1.6434   -0.8329 C   0  0  0  0  0  0  0  0  0  0  0  0
   -5.6806    2.5753   -1.6313 N   0  0  0  0  0  0  0  0  0  0  0  0
   -4.0271    2.1099    0.0559 N   0  0  0  0  0  0  0  0  0  0  0  0
   -3.2941    1.2968    0.8308 C   0  0  0  0  0  0  0  0  0  0  0  0
   -2.3481    1.7904    1.7624 N   0  0  0  0  0  0  0  0  0  0  0  0
   -0.3416   -0.5001    1.6143 C   0  0  0  0  0  0  0  0  0  0  0  0
    0.9647   -0.6987    1.2275 C   0  0  0  0  0  0  0  0  0  0  0  0
  1  2  1  0
  2  3  1  0
  3  4  1  0
  4  5  1  0
  5  6  1  0
  6  7  1  0
  7  8  1  0
  8  9  1  0
  9 10  2  0
 10 11  1  0
 11 12  2  0
 12 13  1  0
 13 14  1  0
 14 15  2  0
 15 16  1  0
 16 17  2  0
 17 18  1  0
 17 19  1  0
 19 20  2  0
 20 21  1  0
 12 22  1  0
 22 23  2  0
 23  9  1  0
 20 14  1  0
M  END
>  <zinc_id>  (1113) 
ZINC000034801983

>  <ortholog_name>  (1113) 
DRTS_PLAFK

>  <gene_name>  (1113) 
DRTS_PLAFK

>  <affinity>  (1113) 
7.75

>  <chembldocid>  (1113) 
17636

>  <title>  (1113) 
None

>  <reference.pubmed_id>  (1113) 
14711307

>  <reference.doi>  (1113) 
None

>  <reference.chembl_id>  (1113) 
CHEMBL1148379

>  <reference.journal>  (1113) 
J. Med. Chem.

>  <reference.year>  (1113) 
2004

$$$$

     RDKit          3D

 23 24  0  0  0  0  0  0  0  0999 V2000
    4.0346    2.6961   -0.8360 C   0  0  0  0  0  0  0  0  0  0  0  0
    5.4017    2.4981   -1.4806 C   0  0  0  0  0  0  0  0  0  0  0  0
    5.7906    1.0431   -1.1988 C   0  0  0  0  0  0  0  0  0  0  0  0
    4.6929    0.1938   -1.8499 C   0  0  0  0  0  0  0  0  0  0  0  0
    4.9750   -1.2744   -1.6330 C   0  0  0  0  0  0  0  0  0  0  0  0
    4.9959   -1.4773   -0.1147 C   0  0  0  0  0  0  0  0  0  0  0  0
    3.6365   -1.0805    0.4591 C   0  0  0  0  0  0  0  0  0  0  0  0
    2.6095   -1.8849   -0.1088 O   0  0  0  0  0  0  0  0  0  0  0  0
    1.2984   -1.6507    0.3109 C   0  0  0  0  0  0  0  0  0  0  0  0
    0.3044   -2.4236   -0.2334 C   0  0  0  0  0  0  0  0  0  0  0  0
   -1.0281   -2.2263    0.1562 C   0  0  0  0  0  0  0  0  0  0  0  0
   -1.3433   -1.2634    1.0801 C   0  0  0  0  0  0  0  0  0  0  0  0
   -2.7326   -1.0424    1.5022 C   0  0  0  0  0  0  0  0  0  0  0  0
   -3.4782   -0.0643    0.7063 C   0  0  0  0  0  0  0  0  0  0  0  0
   -4.4080   -0.5796   -0.2072 C   0  0  0  0  0  0  0  0  0  0  0  0
   -5.0924    0.3194   -0.9371 N   0  0  0  0  0  0  0  0  0  0  0  0
   -4.9299    1.6434   -0.8329 C   0  0  0  0  0  0  0  0  0  0  0  0
   -5.6806    2.5753   -1.6313 N   0  0  0  0  0  0  0  0  0  0  0  0
   -4.0271    2.1099    0.0559 N   0  0  0  0  0  0  0  0  0  0  0  0
   -3.2941    1.2968    0.8308 C   0  0  0  0  0  0  0  0  0  0  0  0
   -2.3481    1.7904    1.7624 N   0  0  0  0  0  0  0  0  0  0  0  0
   -0.3416   -0.5001    1.6143 C   0  0  0  0  0  0  0  0  0  0  0  0
    0.9647   -0.6987    1.2275 C   0  0  0  0  0  0  0  0  0  0  0  0
  1  2  1  0
  2  3  1  0
  3  4  1  0
  4  5  1  0
  5  6  1  0
  6  7  1  0
  7  8  1  0
  8  9  1  0
  9 10  2  0
 10 11  1  0
 11 12  2  0
 12 13  1  0
 13 14  1  0
 14 15  2  0
 15 16  1  0
 16 17  2  0
 17 18  1  0
 17 19  1  0
 19 20  2  0
 20 21  1  0
 12 22  1  0
 22 23  2  0
 23  9  1  0
 20 14  1  0
M  END
>  <zinc_id>  (1114) 
ZINC000034801983

>  <ortholog_name>  (1114) 
DRTS_PLAFK

>  <gene_name>  (1114) 
DRTS_PLAFK

>  <affinity>  (1114) 
6.71

>  <chembldocid>  (1114) 
17636

>  <title>  (1114) 
None

>  <reference.pubmed_id>  (1114) 
14711307

>  <reference.doi>  (1114) 
None

>  <reference.chembl_id>  (1114) 
CHEMBL1148379

>  <reference.journal>  (1114) 
J. Med. Chem.

>  <reference.year>  (1114) 
2004

$$$$

     RDKit          3D

 23 24  0  0  0  0  0  0  0  0999 V2000
    4.0346    2.6961   -0.8360 C   0  0  0  0  0  0  0  0  0  0  0  0
    5.4017    2.4981   -1.4806 C   0  0  0  0  0  0  0  0  0  0  0  0
    5.7906    1.0431   -1.1988 C   0  0  0  0  0  0  0  0  0  0  0  0
    4.6929    0.1938   -1.8499 C   0  0  0  0  0  0  0  0  0  0  0  0
    4.9750   -1.2744   -1.6330 C   0  0  0  0  0  0  0  0  0  0  0  0
    4.9959   -1.4773   -0.1147 C   0  0  0  0  0  0  0  0  0  0  0  0
    3.6365   -1.0805    0.4591 C   0  0  0  0  0  0  0  0  0  0  0  0
    2.6095   -1.8849   -0.1088 O   0  0  0  0  0  0  0  0  0  0  0  0
    1.2984   -1.6507    0.3109 C   0  0  0  0  0  0  0  0  0  0  0  0
    0.3044   -2.4236   -0.2334 C   0  0  0  0  0  0  0  0  0  0  0  0
   -1.0281   -2.2263    0.1562 C   0  0  0  0  0  0  0  0  0  0  0  0
   -1.3433   -1.2634    1.0801 C   0  0  0  0  0  0  0  0  0  0  0  0
   -2.7326   -1.0424    1.5022 C   0  0  0  0  0  0  0  0  0  0  0  0
   -3.4782   -0.0643    0.7063 C   0  0  0  0  0  0  0  0  0  0  0  0
   -4.4080   -0.5796   -0.2072 C   0  0  0  0  0  0  0  0  0  0  0  0
   -5.0924    0.3194   -0.9371 N   0  0  0  0  0  0  0  0  0  0  0  0
   -4.9299    1.6434   -0.8329 C   0  0  0  0  0  0  0  0  0  0  0  0
   -5.6806    2.5753   -1.6313 N   0  0  0  0  0  0  0  0  0  0  0  0
   -4.0271    2.1099    0.0559 N   0  0  0  0  0  0  0  0  0  0  0  0
   -3.2941    1.2968    0.8308 C   0  0  0  0  0  0  0  0  0  0  0  0
   -2.3481    1.7904    1.7624 N   0  0  0  0  0  0  0  0  0  0  0  0
   -0.3416   -0.5001    1.6143 C   0  0  0  0  0  0  0  0  0  0  0  0
    0.9647   -0.6987    1.2275 C   0  0  0  0  0  0  0  0  0  0  0  0
  1  2  1  0
  2  3  1  0
  3  4  1  0
  4  5  1  0
  5  6  1  0
  6  7  1  0
  7  8  1  0
  8  9  1  0
  9 10  2  0
 10 11  1  0
 11 12  2  0
 12 13  1  0
 13 14  1  0
 14 15  2  0
 15 16  1  0
 16 17  2  0
 17 18  1  0
 17 19  1  0
 19 20  2  0
 20 21  1  0
 12 22  1  0
 22 23  2  0
 23  9  1  0
 20 14  1  0
M  END
>  <zinc_id>  (1115) 
ZINC000034801983

>  <ortholog_name>  (1115) 
DRTS_PLAFK

>  <gene_name>  (1115) 
DRTS_PLAFK

>  <affinity>  (1115) 
5.66

>  <chembldocid>  (1115) 
17636

>  <title>  (1115) 
None

>  <reference.pubmed_id>  (1115) 
14711307

>  <reference.doi>  (1115) 
None

>  <reference.chembl_id>  (1115) 
CHEMBL1148379

>  <reference.journal>  (1115) 
J. Med. Chem.

>  <reference.year>  (1115) 
2004

$$$$

     RDKit          3D

 25 26  0  0  0  0  0  0  0  0999 V2000
    7.6218    3.0794   -1.9430 C   0  0  0  0  0  0  0  0  0  0  0  0
    7.2986    1.9351   -1.0146 C   0  0  0  0  0  0  0  0  0  0  0  0
    5.8032    1.7300   -0.8847 C   0  0  0  0  0  0  0  0  0  0  0  0
    5.5262    0.5737    0.0548 C   0  0  0  0  0  0  0  0  0  0  0  0
    4.0310    0.3567    0.1948 C   0  0  0  0  0  0  0  0  0  0  0  0
    3.5005    0.0515   -1.1855 C   0  0  0  0  0  0  0  0  0  0  0  0
    2.0224   -0.1800   -1.1593 C   0  0  0  0  0  0  0  0  0  0  0  0
    1.7079   -1.2886   -0.3049 O   0  0  0  0  0  0  0  0  0  0  0  0
    0.3749   -1.6748   -0.1393 C   0  0  0  0  0  0  0  0  0  0  0  0
   -0.6410   -1.0017   -0.7876 C   0  0  0  0  0  0  0  0  0  0  0  0
   -1.9645   -1.3605   -0.6429 C   0  0  0  0  0  0  0  0  0  0  0  0
   -3.0615   -0.6298   -1.3465 C   0  0  0  0  0  0  0  0  0  0  0  0
   -3.5805    0.4904   -0.5363 C   0  0  0  0  0  0  0  0  0  0  0  0
   -4.7766    0.3858    0.1159 C   0  0  0  0  0  0  0  0  0  0  0  0
   -5.2193    1.4326    0.8489 N   0  0  0  0  0  0  0  0  0  0  0  0
   -4.4953    2.5712    0.9410 C   0  0  0  0  0  0  0  0  0  0  0  0
   -5.0004    3.6544    1.7271 N   0  0  0  0  0  0  0  0  0  0  0  0
   -3.3196    2.6640    0.2954 N   0  0  0  0  0  0  0  0  0  0  0  0
   -2.8431    1.6443   -0.4452 C   0  0  0  0  0  0  0  0  0  0  0  0
   -1.6085    1.7806   -1.1059 N   0  0  0  0  0  0  0  0  0  0  0  0
   -2.2284   -2.4313    0.1860 C   0  0  0  0  0  0  0  0  0  0  0  0
   -1.2137   -3.1047    0.8346 C   0  0  0  0  0  0  0  0  0  0  0  0
    0.1122   -2.7463    0.6904 C   0  0  0  0  0  0  0  0  0  0  0  0
    1.1384   -3.4195    1.3399 O   0  0  0  0  0  0  0  0  0  0  0  0
    0.8153   -4.5124    2.1801 C   0  0  0  0  0  0  0  0  0  0  0  0
  1  2  1  0
  2  3  1  0
  3  4  1  0
  4  5  1  0
  5  6  1  0
  6  7  1  0
  7  8  1  0
  8  9  1  0
  9 10  2  0
 10 11  1  0
 11 12  1  0
 12 13  1  0
 13 14  2  0
 14 15  1  0
 15 16  2  0
 16 17  1  0
 16 18  1  0
 18 19  2  0
 19 20  1  0
 11 21  2  0
 21 22  1  0
 22 23  2  0
 23 24  1  0
 24 25  1  0
 23  9  1  0
 19 13  1  0
M  END
>  <zinc_id>  (1116) 
ZINC000034801984

>  <ortholog_name>  (1116) 
DRTS_PLAFK

>  <gene_name>  (1116) 
DRTS_PLAFK

>  <affinity>  (1116) 
6.99

>  <chembldocid>  (1116) 
17636

>  <title>  (1116) 
None

>  <reference.pubmed_id>  (1116) 
14711307

>  <reference.doi>  (1116) 
None

>  <reference.chembl_id>  (1116) 
CHEMBL1148379

>  <reference.journal>  (1116) 
J. Med. Chem.

>  <reference.year>  (1116) 
2004

$$$$

     RDKit          3D

 25 26  0  0  0  0  0  0  0  0999 V2000
    7.6218    3.0794   -1.9430 C   0  0  0  0  0  0  0  0  0  0  0  0
    7.2986    1.9351   -1.0146 C   0  0  0  0  0  0  0  0  0  0  0  0
    5.8032    1.7300   -0.8847 C   0  0  0  0  0  0  0  0  0  0  0  0
    5.5262    0.5737    0.0548 C   0  0  0  0  0  0  0  0  0  0  0  0
    4.0310    0.3567    0.1948 C   0  0  0  0  0  0  0  0  0  0  0  0
    3.5005    0.0515   -1.1855 C   0  0  0  0  0  0  0  0  0  0  0  0
    2.0224   -0.1800   -1.1593 C   0  0  0  0  0  0  0  0  0  0  0  0
    1.7079   -1.2886   -0.3049 O   0  0  0  0  0  0  0  0  0  0  0  0
    0.3749   -1.6748   -0.1393 C   0  0  0  0  0  0  0  0  0  0  0  0
   -0.6410   -1.0017   -0.7876 C   0  0  0  0  0  0  0  0  0  0  0  0
   -1.9645   -1.3605   -0.6429 C   0  0  0  0  0  0  0  0  0  0  0  0
   -3.0615   -0.6298   -1.3465 C   0  0  0  0  0  0  0  0  0  0  0  0
   -3.5805    0.4904   -0.5363 C   0  0  0  0  0  0  0  0  0  0  0  0
   -4.7766    0.3858    0.1159 C   0  0  0  0  0  0  0  0  0  0  0  0
   -5.2193    1.4326    0.8489 N   0  0  0  0  0  0  0  0  0  0  0  0
   -4.4953    2.5712    0.9410 C   0  0  0  0  0  0  0  0  0  0  0  0
   -5.0004    3.6544    1.7271 N   0  0  0  0  0  0  0  0  0  0  0  0
   -3.3196    2.6640    0.2954 N   0  0  0  0  0  0  0  0  0  0  0  0
   -2.8431    1.6443   -0.4452 C   0  0  0  0  0  0  0  0  0  0  0  0
   -1.6085    1.7806   -1.1059 N   0  0  0  0  0  0  0  0  0  0  0  0
   -2.2284   -2.4313    0.1860 C   0  0  0  0  0  0  0  0  0  0  0  0
   -1.2137   -3.1047    0.8346 C   0  0  0  0  0  0  0  0  0  0  0  0
    0.1122   -2.7463    0.6904 C   0  0  0  0  0  0  0  0  0  0  0  0
    1.1384   -3.4195    1.3399 O   0  0  0  0  0  0  0  0  0  0  0  0
    0.8153   -4.5124    2.1801 C   0  0  0  0  0  0  0  0  0  0  0  0
  1  2  1  0
  2  3  1  0
  3  4  1  0
  4  5  1  0
  5  6  1  0
  6  7  1  0
  7  8  1  0
  8  9  1  0
  9 10  2  0
 10 11  1  0
 11 12  1  0
 12 13  1  0
 13 14  2  0
 14 15  1  0
 15 16  2  0
 16 17  1  0
 16 18  1  0
 18 19  2  0
 19 20  1  0
 11 21  2  0
 21 22  1  0
 22 23  2  0
 23 24  1  0
 24 25  1  0
 23  9  1  0
 19 13  1  0
M  END
>  <zinc_id>  (1117) 
ZINC000034801984

>  <ortholog_name>  (1117) 
DRTS_PLAFK

>  <gene_name>  (1117) 
DRTS_PLAFK

>  <affinity>  (1117) 
6.53

>  <chembldocid>  (1117) 
17636

>  <title>  (1117) 
None

>  <reference.pubmed_id>  (1117) 
14711307

>  <reference.doi>  (1117) 
None

>  <reference.chembl_id>  (1117) 
CHEMBL1148379

>  <reference.journal>  (1117) 
J. Med. Chem.

>  <reference.year>  (1117) 
2004

$$$$

     RDKit          3D

 25 26  0  0  0  0  0  0  0  0999 V2000
    7.6218    3.0794   -1.9430 C   0  0  0  0  0  0  0  0  0  0  0  0
    7.2986    1.9351   -1.0146 C   0  0  0  0  0  0  0  0  0  0  0  0
    5.8032    1.7300   -0.8847 C   0  0  0  0  0  0  0  0  0  0  0  0
    5.5262    0.5737    0.0548 C   0  0  0  0  0  0  0  0  0  0  0  0
    4.0310    0.3567    0.1948 C   0  0  0  0  0  0  0  0  0  0  0  0
    3.5005    0.0515   -1.1855 C   0  0  0  0  0  0  0  0  0  0  0  0
    2.0224   -0.1800   -1.1593 C   0  0  0  0  0  0  0  0  0  0  0  0
    1.7079   -1.2886   -0.3049 O   0  0  0  0  0  0  0  0  0  0  0  0
    0.3749   -1.6748   -0.1393 C   0  0  0  0  0  0  0  0  0  0  0  0
   -0.6410   -1.0017   -0.7876 C   0  0  0  0  0  0  0  0  0  0  0  0
   -1.9645   -1.3605   -0.6429 C   0  0  0  0  0  0  0  0  0  0  0  0
   -3.0615   -0.6298   -1.3465 C   0  0  0  0  0  0  0  0  0  0  0  0
   -3.5805    0.4904   -0.5363 C   0  0  0  0  0  0  0  0  0  0  0  0
   -4.7766    0.3858    0.1159 C   0  0  0  0  0  0  0  0  0  0  0  0
   -5.2193    1.4326    0.8489 N   0  0  0  0  0  0  0  0  0  0  0  0
   -4.4953    2.5712    0.9410 C   0  0  0  0  0  0  0  0  0  0  0  0
   -5.0004    3.6544    1.7271 N   0  0  0  0  0  0  0  0  0  0  0  0
   -3.3196    2.6640    0.2954 N   0  0  0  0  0  0  0  0  0  0  0  0
   -2.8431    1.6443   -0.4452 C   0  0  0  0  0  0  0  0  0  0  0  0
   -1.6085    1.7806   -1.1059 N   0  0  0  0  0  0  0  0  0  0  0  0
   -2.2284   -2.4313    0.1860 C   0  0  0  0  0  0  0  0  0  0  0  0
   -1.2137   -3.1047    0.8346 C   0  0  0  0  0  0  0  0  0  0  0  0
    0.1122   -2.7463    0.6904 C   0  0  0  0  0  0  0  0  0  0  0  0
    1.1384   -3.4195    1.3399 O   0  0  0  0  0  0  0  0  0  0  0  0
    0.8153   -4.5124    2.1801 C   0  0  0  0  0  0  0  0  0  0  0  0
  1  2  1  0
  2  3  1  0
  3  4  1  0
  4  5  1  0
  5  6  1  0
  6  7  1  0
  7  8  1  0
  8  9  1  0
  9 10  2  0
 10 11  1  0
 11 12  1  0
 12 13  1  0
 13 14  2  0
 14 15  1  0
 15 16  2  0
 16 17  1  0
 16 18  1  0
 18 19  2  0
 19 20  1  0
 11 21  2  0
 21 22  1  0
 22 23  2  0
 23 24  1  0
 24 25  1  0
 23  9  1  0
 19 13  1  0
M  END
>  <zinc_id>  (1118) 
ZINC000034801984

>  <ortholog_name>  (1118) 
DRTS_PLAFK

>  <gene_name>  (1118) 
DRTS_PLAFK

>  <affinity>  (1118) 
8.51

>  <chembldocid>  (1118) 
17636

>  <title>  (1118) 
None

>  <reference.pubmed_id>  (1118) 
14711307

>  <reference.doi>  (1118) 
None

>  <reference.chembl_id>  (1118) 
CHEMBL1148379

>  <reference.journal>  (1118) 
J. Med. Chem.

>  <reference.year>  (1118) 
2004

$$$$

     RDKit          3D

 25 26  0  0  0  0  0  0  0  0999 V2000
    7.6218    3.0794   -1.9430 C   0  0  0  0  0  0  0  0  0  0  0  0
    7.2986    1.9351   -1.0146 C   0  0  0  0  0  0  0  0  0  0  0  0
    5.8032    1.7300   -0.8847 C   0  0  0  0  0  0  0  0  0  0  0  0
    5.5262    0.5737    0.0548 C   0  0  0  0  0  0  0  0  0  0  0  0
    4.0310    0.3567    0.1948 C   0  0  0  0  0  0  0  0  0  0  0  0
    3.5005    0.0515   -1.1855 C   0  0  0  0  0  0  0  0  0  0  0  0
    2.0224   -0.1800   -1.1593 C   0  0  0  0  0  0  0  0  0  0  0  0
    1.7079   -1.2886   -0.3049 O   0  0  0  0  0  0  0  0  0  0  0  0
    0.3749   -1.6748   -0.1393 C   0  0  0  0  0  0  0  0  0  0  0  0
   -0.6410   -1.0017   -0.7876 C   0  0  0  0  0  0  0  0  0  0  0  0
   -1.9645   -1.3605   -0.6429 C   0  0  0  0  0  0  0  0  0  0  0  0
   -3.0615   -0.6298   -1.3465 C   0  0  0  0  0  0  0  0  0  0  0  0
   -3.5805    0.4904   -0.5363 C   0  0  0  0  0  0  0  0  0  0  0  0
   -4.7766    0.3858    0.1159 C   0  0  0  0  0  0  0  0  0  0  0  0
   -5.2193    1.4326    0.8489 N   0  0  0  0  0  0  0  0  0  0  0  0
   -4.4953    2.5712    0.9410 C   0  0  0  0  0  0  0  0  0  0  0  0
   -5.0004    3.6544    1.7271 N   0  0  0  0  0  0  0  0  0  0  0  0
   -3.3196    2.6640    0.2954 N   0  0  0  0  0  0  0  0  0  0  0  0
   -2.8431    1.6443   -0.4452 C   0  0  0  0  0  0  0  0  0  0  0  0
   -1.6085    1.7806   -1.1059 N   0  0  0  0  0  0  0  0  0  0  0  0
   -2.2284   -2.4313    0.1860 C   0  0  0  0  0  0  0  0  0  0  0  0
   -1.2137   -3.1047    0.8346 C   0  0  0  0  0  0  0  0  0  0  0  0
    0.1122   -2.7463    0.6904 C   0  0  0  0  0  0  0  0  0  0  0  0
    1.1384   -3.4195    1.3399 O   0  0  0  0  0  0  0  0  0  0  0  0
    0.8153   -4.5124    2.1801 C   0  0  0  0  0  0  0  0  0  0  0  0
  1  2  1  0
  2  3  1  0
  3  4  1  0
  4  5  1  0
  5  6  1  0
  6  7  1  0
  7  8  1  0
  8  9  1  0
  9 10  2  0
 10 11  1  0
 11 12  1  0
 12 13  1  0
 13 14  2  0
 14 15  1  0
 15 16  2  0
 16 17  1  0
 16 18  1  0
 18 19  2  0
 19 20  1  0
 11 21  2  0
 21 22  1  0
 22 23  2  0
 23 24  1  0
 24 25  1  0
 23  9  1  0
 19 13  1  0
M  END
>  <zinc_id>  (1119) 
ZINC000034801984

>  <ortholog_name>  (1119) 
DRTS_PLAFK

>  <gene_name>  (1119) 
DRTS_PLAFK

>  <affinity>  (1119) 
6.35

>  <chembldocid>  (1119) 
17636

>  <title>  (1119) 
None

>  <reference.pubmed_id>  (1119) 
14711307

>  <reference.doi>  (1119) 
None

>  <reference.chembl_id>  (1119) 
CHEMBL1148379

>  <reference.journal>  (1119) 
J. Med. Chem.

>  <reference.year>  (1119) 
2004

$$$$

     RDKit          3D

 22 23  0  0  0  0  0  0  0  0999 V2000
    5.9601    1.8222   -0.1412 C   0  0  0  0  0  0  0  0  0  0  0  0
    4.8105    1.0578    0.5057 C   0  0  0  0  0  0  0  0  0  0  0  0
    4.4475   -0.1651   -0.3309 C   0  0  0  0  0  0  0  0  0  0  0  0
    3.3048   -0.8586    0.3824 C   0  0  0  0  0  0  0  0  0  0  0  0
    2.1520    0.1103    0.4722 C   0  0  0  0  0  0  0  0  0  0  0  0
    0.9505   -0.4448    1.1565 C   0  0  0  0  0  0  0  0  0  0  0  0
    0.2935   -1.6046    0.6330 C   0  0  0  0  0  0  0  0  0  0  0  0
   -0.3314   -1.4795   -0.8330 C   0  0  2  0  0  0  0  0  0  0  0  0
    0.8904   -1.1447   -1.6496 N   0  0  0  0  0  0  0  0  0  0  0  0
    1.1872   -0.0972   -2.2086 C   0  0  0  0  0  0  0  0  0  0  0  0
    2.4108    0.0490   -2.9652 N   0  0  0  0  0  0  0  0  0  0  0  0
    0.3284    0.9864   -2.0349 N   0  0  0  0  0  0  0  0  0  0  0  0
   -0.7259    0.9813   -1.3425 C   0  0  0  0  0  0  0  0  0  0  0  0
   -1.5168    2.1530   -1.2518 N   0  0  0  0  0  0  0  0  0  0  0  0
   -1.0729   -0.1375   -0.6478 N   0  0  0  0  0  0  0  0  0  0  0  0
   -2.1505   -0.2038    0.3246 C   0  0  0  0  0  0  0  0  0  0  0  0
   -2.8802    0.9290    0.5735 C   0  0  0  0  0  0  0  0  0  0  0  0
   -3.9098    0.9245    1.4821 C   0  0  0  0  0  0  0  0  0  0  0  0
   -4.2362   -0.2014    2.1610 C   0  0  0  0  0  0  0  0  0  0  0  0
   -3.4920   -1.3540    1.9061 C   0  0  0  0  0  0  0  0  0  0  0  0
   -3.9530   -2.7835    2.8092 Cl  0  0  0  0  0  0  0  0  0  0  0  0
   -2.4671   -1.3423    0.9992 C   0  0  0  0  0  0  0  0  0  0  0  0
  1  2  1  0
  2  3  1  0
  3  4  1  0
  4  5  1  0
  5  6  1  0
  6  7  1  0
  8  7  1  1
  8  9  1  0
  9 10  2  0
 10 11  1  0
 10 12  1  0
 12 13  2  0
 13 14  1  0
 13 15  1  0
 15 16  1  0
 16 17  2  0
 17 18  1  0
 18 19  2  0
 19 20  1  0
 20 21  1  0
 20 22  2  0
 15  8  1  0
 22 16  1  0
M  END
>  <zinc_id>  (1120) 
ZINC000034801985

>  <ortholog_name>  (1120) 
DRTS_PLAFK

>  <gene_name>  (1120) 
DRTS_PLAFK

>  <affinity>  (1120) 
9.52

>  <chembldocid>  (1120) 
17662

>  <title>  (1120) 
None

>  <reference.pubmed_id>  (1120) 
14736247

>  <reference.doi>  (1120) 
None

>  <reference.chembl_id>  (1120) 
CHEMBL1138835

>  <reference.journal>  (1120) 
J. Med. Chem.

>  <reference.year>  (1120) 
2004

$$$$

     RDKit          3D

 22 23  0  0  0  0  0  0  0  0999 V2000
    5.9601    1.8222   -0.1412 C   0  0  0  0  0  0  0  0  0  0  0  0
    4.8105    1.0578    0.5057 C   0  0  0  0  0  0  0  0  0  0  0  0
    4.4475   -0.1651   -0.3309 C   0  0  0  0  0  0  0  0  0  0  0  0
    3.3048   -0.8586    0.3824 C   0  0  0  0  0  0  0  0  0  0  0  0
    2.1520    0.1103    0.4722 C   0  0  0  0  0  0  0  0  0  0  0  0
    0.9505   -0.4448    1.1565 C   0  0  0  0  0  0  0  0  0  0  0  0
    0.2935   -1.6046    0.6330 C   0  0  0  0  0  0  0  0  0  0  0  0
   -0.3314   -1.4795   -0.8330 C   0  0  2  0  0  0  0  0  0  0  0  0
    0.8904   -1.1447   -1.6496 N   0  0  0  0  0  0  0  0  0  0  0  0
    1.1872   -0.0972   -2.2086 C   0  0  0  0  0  0  0  0  0  0  0  0
    2.4108    0.0490   -2.9652 N   0  0  0  0  0  0  0  0  0  0  0  0
    0.3284    0.9864   -2.0349 N   0  0  0  0  0  0  0  0  0  0  0  0
   -0.7259    0.9813   -1.3425 C   0  0  0  0  0  0  0  0  0  0  0  0
   -1.5168    2.1530   -1.2518 N   0  0  0  0  0  0  0  0  0  0  0  0
   -1.0729   -0.1375   -0.6478 N   0  0  0  0  0  0  0  0  0  0  0  0
   -2.1505   -0.2038    0.3246 C   0  0  0  0  0  0  0  0  0  0  0  0
   -2.8802    0.9290    0.5735 C   0  0  0  0  0  0  0  0  0  0  0  0
   -3.9098    0.9245    1.4821 C   0  0  0  0  0  0  0  0  0  0  0  0
   -4.2362   -0.2014    2.1610 C   0  0  0  0  0  0  0  0  0  0  0  0
   -3.4920   -1.3540    1.9061 C   0  0  0  0  0  0  0  0  0  0  0  0
   -3.9530   -2.7835    2.8092 Cl  0  0  0  0  0  0  0  0  0  0  0  0
   -2.4671   -1.3423    0.9992 C   0  0  0  0  0  0  0  0  0  0  0  0
  1  2  1  0
  2  3  1  0
  3  4  1  0
  4  5  1  0
  5  6  1  0
  6  7  1  0
  8  7  1  1
  8  9  1  0
  9 10  2  0
 10 11  1  0
 10 12  1  0
 12 13  2  0
 13 14  1  0
 13 15  1  0
 15 16  1  0
 16 17  2  0
 17 18  1  0
 18 19  2  0
 19 20  1  0
 20 21  1  0
 20 22  2  0
 15  8  1  0
 22 16  1  0
M  END
>  <zinc_id>  (1121) 
ZINC000034801985

>  <ortholog_name>  (1121) 
DRTS_PLAFK

>  <gene_name>  (1121) 
DRTS_PLAFK

>  <affinity>  (1121) 
9.10

>  <chembldocid>  (1121) 
17662

>  <title>  (1121) 
None

>  <reference.pubmed_id>  (1121) 
14736247

>  <reference.doi>  (1121) 
None

>  <reference.chembl_id>  (1121) 
CHEMBL1138835

>  <reference.journal>  (1121) 
J. Med. Chem.

>  <reference.year>  (1121) 
2004

$$$$

     RDKit          3D

 22 23  0  0  0  0  0  0  0  0999 V2000
    5.9601    1.8222   -0.1412 C   0  0  0  0  0  0  0  0  0  0  0  0
    4.8105    1.0578    0.5057 C   0  0  0  0  0  0  0  0  0  0  0  0
    4.4475   -0.1651   -0.3309 C   0  0  0  0  0  0  0  0  0  0  0  0
    3.3048   -0.8586    0.3824 C   0  0  0  0  0  0  0  0  0  0  0  0
    2.1520    0.1103    0.4722 C   0  0  0  0  0  0  0  0  0  0  0  0
    0.9505   -0.4448    1.1565 C   0  0  0  0  0  0  0  0  0  0  0  0
    0.2935   -1.6046    0.6330 C   0  0  0  0  0  0  0  0  0  0  0  0
   -0.3314   -1.4795   -0.8330 C   0  0  2  0  0  0  0  0  0  0  0  0
    0.8904   -1.1447   -1.6496 N   0  0  0  0  0  0  0  0  0  0  0  0
    1.1872   -0.0972   -2.2086 C   0  0  0  0  0  0  0  0  0  0  0  0
    2.4108    0.0490   -2.9652 N   0  0  0  0  0  0  0  0  0  0  0  0
    0.3284    0.9864   -2.0349 N   0  0  0  0  0  0  0  0  0  0  0  0
   -0.7259    0.9813   -1.3425 C   0  0  0  0  0  0  0  0  0  0  0  0
   -1.5168    2.1530   -1.2518 N   0  0  0  0  0  0  0  0  0  0  0  0
   -1.0729   -0.1375   -0.6478 N   0  0  0  0  0  0  0  0  0  0  0  0
   -2.1505   -0.2038    0.3246 C   0  0  0  0  0  0  0  0  0  0  0  0
   -2.8802    0.9290    0.5735 C   0  0  0  0  0  0  0  0  0  0  0  0
   -3.9098    0.9245    1.4821 C   0  0  0  0  0  0  0  0  0  0  0  0
   -4.2362   -0.2014    2.1610 C   0  0  0  0  0  0  0  0  0  0  0  0
   -3.4920   -1.3540    1.9061 C   0  0  0  0  0  0  0  0  0  0  0  0
   -3.9530   -2.7835    2.8092 Cl  0  0  0  0  0  0  0  0  0  0  0  0
   -2.4671   -1.3423    0.9992 C   0  0  0  0  0  0  0  0  0  0  0  0
  1  2  1  0
  2  3  1  0
  3  4  1  0
  4  5  1  0
  5  6  1  0
  6  7  1  0
  8  7  1  1
  8  9  1  0
  9 10  2  0
 10 11  1  0
 10 12  1  0
 12 13  2  0
 13 14  1  0
 13 15  1  0
 15 16  1  0
 16 17  2  0
 17 18  1  0
 18 19  2  0
 19 20  1  0
 20 21  1  0
 20 22  2  0
 15  8  1  0
 22 16  1  0
M  END
>  <zinc_id>  (1122) 
ZINC000034801985

>  <ortholog_name>  (1122) 
DRTS_PLAFK

>  <gene_name>  (1122) 
DRTS_PLAFK

>  <affinity>  (1122) 
9.00

>  <chembldocid>  (1122) 
17662

>  <title>  (1122) 
None

>  <reference.pubmed_id>  (1122) 
14736247

>  <reference.doi>  (1122) 
None

>  <reference.chembl_id>  (1122) 
CHEMBL1138835

>  <reference.journal>  (1122) 
J. Med. Chem.

>  <reference.year>  (1122) 
2004

$$$$

     RDKit          3D

 22 23  0  0  0  0  0  0  0  0999 V2000
    5.9601    1.8222   -0.1412 C   0  0  0  0  0  0  0  0  0  0  0  0
    4.8105    1.0578    0.5057 C   0  0  0  0  0  0  0  0  0  0  0  0
    4.4475   -0.1651   -0.3309 C   0  0  0  0  0  0  0  0  0  0  0  0
    3.3048   -0.8586    0.3824 C   0  0  0  0  0  0  0  0  0  0  0  0
    2.1520    0.1103    0.4722 C   0  0  0  0  0  0  0  0  0  0  0  0
    0.9505   -0.4448    1.1565 C   0  0  0  0  0  0  0  0  0  0  0  0
    0.2935   -1.6046    0.6330 C   0  0  0  0  0  0  0  0  0  0  0  0
   -0.3314   -1.4795   -0.8330 C   0  0  2  0  0  0  0  0  0  0  0  0
    0.8904   -1.1447   -1.6496 N   0  0  0  0  0  0  0  0  0  0  0  0
    1.1872   -0.0972   -2.2086 C   0  0  0  0  0  0  0  0  0  0  0  0
    2.4108    0.0490   -2.9652 N   0  0  0  0  0  0  0  0  0  0  0  0
    0.3284    0.9864   -2.0349 N   0  0  0  0  0  0  0  0  0  0  0  0
   -0.7259    0.9813   -1.3425 C   0  0  0  0  0  0  0  0  0  0  0  0
   -1.5168    2.1530   -1.2518 N   0  0  0  0  0  0  0  0  0  0  0  0
   -1.0729   -0.1375   -0.6478 N   0  0  0  0  0  0  0  0  0  0  0  0
   -2.1505   -0.2038    0.3246 C   0  0  0  0  0  0  0  0  0  0  0  0
   -2.8802    0.9290    0.5735 C   0  0  0  0  0  0  0  0  0  0  0  0
   -3.9098    0.9245    1.4821 C   0  0  0  0  0  0  0  0  0  0  0  0
   -4.2362   -0.2014    2.1610 C   0  0  0  0  0  0  0  0  0  0  0  0
   -3.4920   -1.3540    1.9061 C   0  0  0  0  0  0  0  0  0  0  0  0
   -3.9530   -2.7835    2.8092 Cl  0  0  0  0  0  0  0  0  0  0  0  0
   -2.4671   -1.3423    0.9992 C   0  0  0  0  0  0  0  0  0  0  0  0
  1  2  1  0
  2  3  1  0
  3  4  1  0
  4  5  1  0
  5  6  1  0
  6  7  1  0
  8  7  1  1
  8  9  1  0
  9 10  2  0
 10 11  1  0
 10 12  1  0
 12 13  2  0
 13 14  1  0
 13 15  1  0
 15 16  1  0
 16 17  2  0
 17 18  1  0
 18 19  2  0
 19 20  1  0
 20 21  1  0
 20 22  2  0
 15  8  1  0
 22 16  1  0
M  END
>  <zinc_id>  (1123) 
ZINC000034801985

>  <ortholog_name>  (1123) 
DRTS_PLAFK

>  <gene_name>  (1123) 
DRTS_PLAFK

>  <affinity>  (1123) 
6.85

>  <chembldocid>  (1123) 
17662

>  <title>  (1123) 
None

>  <reference.pubmed_id>  (1123) 
14736247

>  <reference.doi>  (1123) 
None

>  <reference.chembl_id>  (1123) 
CHEMBL1138835

>  <reference.journal>  (1123) 
J. Med. Chem.

>  <reference.year>  (1123) 
2004

$$$$

     RDKit          3D

 22 23  0  0  0  0  0  0  0  0999 V2000
    5.9601    1.8222   -0.1412 C   0  0  0  0  0  0  0  0  0  0  0  0
    4.8105    1.0578    0.5057 C   0  0  0  0  0  0  0  0  0  0  0  0
    4.4475   -0.1651   -0.3309 C   0  0  0  0  0  0  0  0  0  0  0  0
    3.3048   -0.8586    0.3824 C   0  0  0  0  0  0  0  0  0  0  0  0
    2.1520    0.1103    0.4722 C   0  0  0  0  0  0  0  0  0  0  0  0
    0.9505   -0.4448    1.1565 C   0  0  0  0  0  0  0  0  0  0  0  0
    0.2935   -1.6046    0.6330 C   0  0  0  0  0  0  0  0  0  0  0  0
   -0.3314   -1.4795   -0.8330 C   0  0  2  0  0  0  0  0  0  0  0  0
    0.8904   -1.1447   -1.6496 N   0  0  0  0  0  0  0  0  0  0  0  0
    1.1872   -0.0972   -2.2086 C   0  0  0  0  0  0  0  0  0  0  0  0
    2.4108    0.0490   -2.9652 N   0  0  0  0  0  0  0  0  0  0  0  0
    0.3284    0.9864   -2.0349 N   0  0  0  0  0  0  0  0  0  0  0  0
   -0.7259    0.9813   -1.3425 C   0  0  0  0  0  0  0  0  0  0  0  0
   -1.5168    2.1530   -1.2518 N   0  0  0  0  0  0  0  0  0  0  0  0
   -1.0729   -0.1375   -0.6478 N   0  0  0  0  0  0  0  0  0  0  0  0
   -2.1505   -0.2038    0.3246 C   0  0  0  0  0  0  0  0  0  0  0  0
   -2.8802    0.9290    0.5735 C   0  0  0  0  0  0  0  0  0  0  0  0
   -3.9098    0.9245    1.4821 C   0  0  0  0  0  0  0  0  0  0  0  0
   -4.2362   -0.2014    2.1610 C   0  0  0  0  0  0  0  0  0  0  0  0
   -3.4920   -1.3540    1.9061 C   0  0  0  0  0  0  0  0  0  0  0  0
   -3.9530   -2.7835    2.8092 Cl  0  0  0  0  0  0  0  0  0  0  0  0
   -2.4671   -1.3423    0.9992 C   0  0  0  0  0  0  0  0  0  0  0  0
  1  2  1  0
  2  3  1  0
  3  4  1  0
  4  5  1  0
  5  6  1  0
  6  7  1  0
  8  7  1  1
  8  9  1  0
  9 10  2  0
 10 11  1  0
 10 12  1  0
 12 13  2  0
 13 14  1  0
 13 15  1  0
 15 16  1  0
 16 17  2  0
 17 18  1  0
 18 19  2  0
 19 20  1  0
 20 21  1  0
 20 22  2  0
 15  8  1  0
 22 16  1  0
M  END
>  <zinc_id>  (1124) 
ZINC000034801985

>  <ortholog_name>  (1124) 
DRTS_PLAFK

>  <gene_name>  (1124) 
DRTS_PLAFK

>  <affinity>  (1124) 
8.57

>  <chembldocid>  (1124) 
17662

>  <title>  (1124) 
None

>  <reference.pubmed_id>  (1124) 
14736247

>  <reference.doi>  (1124) 
None

>  <reference.chembl_id>  (1124) 
CHEMBL1138835

>  <reference.journal>  (1124) 
J. Med. Chem.

>  <reference.year>  (1124) 
2004

$$$$

     RDKit          3D

 22 23  0  0  0  0  0  0  0  0999 V2000
    5.9601    1.8222   -0.1412 C   0  0  0  0  0  0  0  0  0  0  0  0
    4.8105    1.0578    0.5057 C   0  0  0  0  0  0  0  0  0  0  0  0
    4.4475   -0.1651   -0.3309 C   0  0  0  0  0  0  0  0  0  0  0  0
    3.3048   -0.8586    0.3824 C   0  0  0  0  0  0  0  0  0  0  0  0
    2.1520    0.1103    0.4722 C   0  0  0  0  0  0  0  0  0  0  0  0
    0.9505   -0.4448    1.1565 C   0  0  0  0  0  0  0  0  0  0  0  0
    0.2935   -1.6046    0.6330 C   0  0  0  0  0  0  0  0  0  0  0  0
   -0.3314   -1.4795   -0.8330 C   0  0  2  0  0  0  0  0  0  0  0  0
    0.8904   -1.1447   -1.6496 N   0  0  0  0  0  0  0  0  0  0  0  0
    1.1872   -0.0972   -2.2086 C   0  0  0  0  0  0  0  0  0  0  0  0
    2.4108    0.0490   -2.9652 N   0  0  0  0  0  0  0  0  0  0  0  0
    0.3284    0.9864   -2.0349 N   0  0  0  0  0  0  0  0  0  0  0  0
   -0.7259    0.9813   -1.3425 C   0  0  0  0  0  0  0  0  0  0  0  0
   -1.5168    2.1530   -1.2518 N   0  0  0  0  0  0  0  0  0  0  0  0
   -1.0729   -0.1375   -0.6478 N   0  0  0  0  0  0  0  0  0  0  0  0
   -2.1505   -0.2038    0.3246 C   0  0  0  0  0  0  0  0  0  0  0  0
   -2.8802    0.9290    0.5735 C   0  0  0  0  0  0  0  0  0  0  0  0
   -3.9098    0.9245    1.4821 C   0  0  0  0  0  0  0  0  0  0  0  0
   -4.2362   -0.2014    2.1610 C   0  0  0  0  0  0  0  0  0  0  0  0
   -3.4920   -1.3540    1.9061 C   0  0  0  0  0  0  0  0  0  0  0  0
   -3.9530   -2.7835    2.8092 Cl  0  0  0  0  0  0  0  0  0  0  0  0
   -2.4671   -1.3423    0.9992 C   0  0  0  0  0  0  0  0  0  0  0  0
  1  2  1  0
  2  3  1  0
  3  4  1  0
  4  5  1  0
  5  6  1  0
  6  7  1  0
  8  7  1  1
  8  9  1  0
  9 10  2  0
 10 11  1  0
 10 12  1  0
 12 13  2  0
 13 14  1  0
 13 15  1  0
 15 16  1  0
 16 17  2  0
 17 18  1  0
 18 19  2  0
 19 20  1  0
 20 21  1  0
 20 22  2  0
 15  8  1  0
 22 16  1  0
M  END
>  <zinc_id>  (1125) 
ZINC000034801985

>  <ortholog_name>  (1125) 
DRTS_PLAFK

>  <gene_name>  (1125) 
DRTS_PLAFK

>  <affinity>  (1125) 
5.60

>  <chembldocid>  (1125) 
17662

>  <title>  (1125) 
None

>  <reference.pubmed_id>  (1125) 
14736247

>  <reference.doi>  (1125) 
None

>  <reference.chembl_id>  (1125) 
CHEMBL1138835

>  <reference.journal>  (1125) 
J. Med. Chem.

>  <reference.year>  (1125) 
2004

$$$$

     RDKit          3D

 22 23  0  0  0  0  0  0  0  0999 V2000
    5.9601    1.8222   -0.1412 C   0  0  0  0  0  0  0  0  0  0  0  0
    4.8105    1.0578    0.5057 C   0  0  0  0  0  0  0  0  0  0  0  0
    4.4475   -0.1651   -0.3309 C   0  0  0  0  0  0  0  0  0  0  0  0
    3.3048   -0.8586    0.3824 C   0  0  0  0  0  0  0  0  0  0  0  0
    2.1520    0.1103    0.4722 C   0  0  0  0  0  0  0  0  0  0  0  0
    0.9505   -0.4448    1.1565 C   0  0  0  0  0  0  0  0  0  0  0  0
    0.2935   -1.6046    0.6330 C   0  0  0  0  0  0  0  0  0  0  0  0
   -0.3314   -1.4795   -0.8330 C   0  0  2  0  0  0  0  0  0  0  0  0
    0.8904   -1.1447   -1.6496 N   0  0  0  0  0  0  0  0  0  0  0  0
    1.1872   -0.0972   -2.2086 C   0  0  0  0  0  0  0  0  0  0  0  0
    2.4108    0.0490   -2.9652 N   0  0  0  0  0  0  0  0  0  0  0  0
    0.3284    0.9864   -2.0349 N   0  0  0  0  0  0  0  0  0  0  0  0
   -0.7259    0.9813   -1.3425 C   0  0  0  0  0  0  0  0  0  0  0  0
   -1.5168    2.1530   -1.2518 N   0  0  0  0  0  0  0  0  0  0  0  0
   -1.0729   -0.1375   -0.6478 N   0  0  0  0  0  0  0  0  0  0  0  0
   -2.1505   -0.2038    0.3246 C   0  0  0  0  0  0  0  0  0  0  0  0
   -2.8802    0.9290    0.5735 C   0  0  0  0  0  0  0  0  0  0  0  0
   -3.9098    0.9245    1.4821 C   0  0  0  0  0  0  0  0  0  0  0  0
   -4.2362   -0.2014    2.1610 C   0  0  0  0  0  0  0  0  0  0  0  0
   -3.4920   -1.3540    1.9061 C   0  0  0  0  0  0  0  0  0  0  0  0
   -3.9530   -2.7835    2.8092 Cl  0  0  0  0  0  0  0  0  0  0  0  0
   -2.4671   -1.3423    0.9992 C   0  0  0  0  0  0  0  0  0  0  0  0
  1  2  1  0
  2  3  1  0
  3  4  1  0
  4  5  1  0
  5  6  1  0
  6  7  1  0
  8  7  1  1
  8  9  1  0
  9 10  2  0
 10 11  1  0
 10 12  1  0
 12 13  2  0
 13 14  1  0
 13 15  1  0
 15 16  1  0
 16 17  2  0
 17 18  1  0
 18 19  2  0
 19 20  1  0
 20 21  1  0
 20 22  2  0
 15  8  1  0
 22 16  1  0
M  END
>  <zinc_id>  (1126) 
ZINC000034801985

>  <ortholog_name>  (1126) 
DRTS_PLAFK

>  <gene_name>  (1126) 
DRTS_PLAFK

>  <affinity>  (1126) 
6.59

>  <chembldocid>  (1126) 
17662

>  <title>  (1126) 
None

>  <reference.pubmed_id>  (1126) 
14736247

>  <reference.doi>  (1126) 
None

>  <reference.chembl_id>  (1126) 
CHEMBL1138835

>  <reference.journal>  (1126) 
J. Med. Chem.

>  <reference.year>  (1126) 
2004

$$$$

     RDKit          3D

 22 23  0  0  0  0  0  0  0  0999 V2000
    5.9601    1.8222   -0.1412 C   0  0  0  0  0  0  0  0  0  0  0  0
    4.8105    1.0578    0.5057 C   0  0  0  0  0  0  0  0  0  0  0  0
    4.4475   -0.1651   -0.3309 C   0  0  0  0  0  0  0  0  0  0  0  0
    3.3048   -0.8586    0.3824 C   0  0  0  0  0  0  0  0  0  0  0  0
    2.1520    0.1103    0.4722 C   0  0  0  0  0  0  0  0  0  0  0  0
    0.9505   -0.4448    1.1565 C   0  0  0  0  0  0  0  0  0  0  0  0
    0.2935   -1.6046    0.6330 C   0  0  0  0  0  0  0  0  0  0  0  0
   -0.3314   -1.4795   -0.8330 C   0  0  2  0  0  0  0  0  0  0  0  0
    0.8904   -1.1447   -1.6496 N   0  0  0  0  0  0  0  0  0  0  0  0
    1.1872   -0.0972   -2.2086 C   0  0  0  0  0  0  0  0  0  0  0  0
    2.4108    0.0490   -2.9652 N   0  0  0  0  0  0  0  0  0  0  0  0
    0.3284    0.9864   -2.0349 N   0  0  0  0  0  0  0  0  0  0  0  0
   -0.7259    0.9813   -1.3425 C   0  0  0  0  0  0  0  0  0  0  0  0
   -1.5168    2.1530   -1.2518 N   0  0  0  0  0  0  0  0  0  0  0  0
   -1.0729   -0.1375   -0.6478 N   0  0  0  0  0  0  0  0  0  0  0  0
   -2.1505   -0.2038    0.3246 C   0  0  0  0  0  0  0  0  0  0  0  0
   -2.8802    0.9290    0.5735 C   0  0  0  0  0  0  0  0  0  0  0  0
   -3.9098    0.9245    1.4821 C   0  0  0  0  0  0  0  0  0  0  0  0
   -4.2362   -0.2014    2.1610 C   0  0  0  0  0  0  0  0  0  0  0  0
   -3.4920   -1.3540    1.9061 C   0  0  0  0  0  0  0  0  0  0  0  0
   -3.9530   -2.7835    2.8092 Cl  0  0  0  0  0  0  0  0  0  0  0  0
   -2.4671   -1.3423    0.9992 C   0  0  0  0  0  0  0  0  0  0  0  0
  1  2  1  0
  2  3  1  0
  3  4  1  0
  4  5  1  0
  5  6  1  0
  6  7  1  0
  8  7  1  1
  8  9  1  0
  9 10  2  0
 10 11  1  0
 10 12  1  0
 12 13  2  0
 13 14  1  0
 13 15  1  0
 15 16  1  0
 16 17  2  0
 17 18  1  0
 18 19  2  0
 19 20  1  0
 20 21  1  0
 20 22  2  0
 15  8  1  0
 22 16  1  0
M  END
>  <zinc_id>  (1127) 
ZINC000034801985

>  <ortholog_name>  (1127) 
DRTS_PLAFK

>  <gene_name>  (1127) 
DRTS_PLAFK

>  <affinity>  (1127) 
8.42

>  <chembldocid>  (1127) 
17662

>  <title>  (1127) 
None

>  <reference.pubmed_id>  (1127) 
14736247

>  <reference.doi>  (1127) 
None

>  <reference.chembl_id>  (1127) 
CHEMBL1138835

>  <reference.journal>  (1127) 
J. Med. Chem.

>  <reference.year>  (1127) 
2004

$$$$

     RDKit          3D

 22 23  0  0  0  0  0  0  0  0999 V2000
    5.9601    1.8222   -0.1412 C   0  0  0  0  0  0  0  0  0  0  0  0
    4.8105    1.0578    0.5057 C   0  0  0  0  0  0  0  0  0  0  0  0
    4.4475   -0.1651   -0.3309 C   0  0  0  0  0  0  0  0  0  0  0  0
    3.3048   -0.8586    0.3824 C   0  0  0  0  0  0  0  0  0  0  0  0
    2.1520    0.1103    0.4722 C   0  0  0  0  0  0  0  0  0  0  0  0
    0.9505   -0.4448    1.1565 C   0  0  0  0  0  0  0  0  0  0  0  0
    0.2935   -1.6046    0.6330 C   0  0  0  0  0  0  0  0  0  0  0  0
   -0.3314   -1.4795   -0.8330 C   0  0  2  0  0  0  0  0  0  0  0  0
    0.8904   -1.1447   -1.6496 N   0  0  0  0  0  0  0  0  0  0  0  0
    1.1872   -0.0972   -2.2086 C   0  0  0  0  0  0  0  0  0  0  0  0
    2.4108    0.0490   -2.9652 N   0  0  0  0  0  0  0  0  0  0  0  0
    0.3284    0.9864   -2.0349 N   0  0  0  0  0  0  0  0  0  0  0  0
   -0.7259    0.9813   -1.3425 C   0  0  0  0  0  0  0  0  0  0  0  0
   -1.5168    2.1530   -1.2518 N   0  0  0  0  0  0  0  0  0  0  0  0
   -1.0729   -0.1375   -0.6478 N   0  0  0  0  0  0  0  0  0  0  0  0
   -2.1505   -0.2038    0.3246 C   0  0  0  0  0  0  0  0  0  0  0  0
   -2.8802    0.9290    0.5735 C   0  0  0  0  0  0  0  0  0  0  0  0
   -3.9098    0.9245    1.4821 C   0  0  0  0  0  0  0  0  0  0  0  0
   -4.2362   -0.2014    2.1610 C   0  0  0  0  0  0  0  0  0  0  0  0
   -3.4920   -1.3540    1.9061 C   0  0  0  0  0  0  0  0  0  0  0  0
   -3.9530   -2.7835    2.8092 Cl  0  0  0  0  0  0  0  0  0  0  0  0
   -2.4671   -1.3423    0.9992 C   0  0  0  0  0  0  0  0  0  0  0  0
  1  2  1  0
  2  3  1  0
  3  4  1  0
  4  5  1  0
  5  6  1  0
  6  7  1  0
  8  7  1  1
  8  9  1  0
  9 10  2  0
 10 11  1  0
 10 12  1  0
 12 13  2  0
 13 14  1  0
 13 15  1  0
 15 16  1  0
 16 17  2  0
 17 18  1  0
 18 19  2  0
 19 20  1  0
 20 21  1  0
 20 22  2  0
 15  8  1  0
 22 16  1  0
M  END
>  <zinc_id>  (1128) 
ZINC000034801985

>  <ortholog_name>  (1128) 
DRTS_PLAFK

>  <gene_name>  (1128) 
DRTS_PLAFK

>  <affinity>  (1128) 
6.48

>  <chembldocid>  (1128) 
17662

>  <title>  (1128) 
None

>  <reference.pubmed_id>  (1128) 
14736247

>  <reference.doi>  (1128) 
None

>  <reference.chembl_id>  (1128) 
CHEMBL1138835

>  <reference.journal>  (1128) 
J. Med. Chem.

>  <reference.year>  (1128) 
2004

$$$$

     RDKit          3D

 22 23  0  0  0  0  0  0  0  0999 V2000
    5.9601    1.8222   -0.1412 C   0  0  0  0  0  0  0  0  0  0  0  0
    4.8105    1.0578    0.5057 C   0  0  0  0  0  0  0  0  0  0  0  0
    4.4475   -0.1651   -0.3309 C   0  0  0  0  0  0  0  0  0  0  0  0
    3.3048   -0.8586    0.3824 C   0  0  0  0  0  0  0  0  0  0  0  0
    2.1520    0.1103    0.4722 C   0  0  0  0  0  0  0  0  0  0  0  0
    0.9505   -0.4448    1.1565 C   0  0  0  0  0  0  0  0  0  0  0  0
    0.2935   -1.6046    0.6330 C   0  0  0  0  0  0  0  0  0  0  0  0
   -0.3314   -1.4795   -0.8330 C   0  0  2  0  0  0  0  0  0  0  0  0
    0.8904   -1.1447   -1.6496 N   0  0  0  0  0  0  0  0  0  0  0  0
    1.1872   -0.0972   -2.2086 C   0  0  0  0  0  0  0  0  0  0  0  0
    2.4108    0.0490   -2.9652 N   0  0  0  0  0  0  0  0  0  0  0  0
    0.3284    0.9864   -2.0349 N   0  0  0  0  0  0  0  0  0  0  0  0
   -0.7259    0.9813   -1.3425 C   0  0  0  0  0  0  0  0  0  0  0  0
   -1.5168    2.1530   -1.2518 N   0  0  0  0  0  0  0  0  0  0  0  0
   -1.0729   -0.1375   -0.6478 N   0  0  0  0  0  0  0  0  0  0  0  0
   -2.1505   -0.2038    0.3246 C   0  0  0  0  0  0  0  0  0  0  0  0
   -2.8802    0.9290    0.5735 C   0  0  0  0  0  0  0  0  0  0  0  0
   -3.9098    0.9245    1.4821 C   0  0  0  0  0  0  0  0  0  0  0  0
   -4.2362   -0.2014    2.1610 C   0  0  0  0  0  0  0  0  0  0  0  0
   -3.4920   -1.3540    1.9061 C   0  0  0  0  0  0  0  0  0  0  0  0
   -3.9530   -2.7835    2.8092 Cl  0  0  0  0  0  0  0  0  0  0  0  0
   -2.4671   -1.3423    0.9992 C   0  0  0  0  0  0  0  0  0  0  0  0
  1  2  1  0
  2  3  1  0
  3  4  1  0
  4  5  1  0
  5  6  1  0
  6  7  1  0
  8  7  1  1
  8  9  1  0
  9 10  2  0
 10 11  1  0
 10 12  1  0
 12 13  2  0
 13 14  1  0
 13 15  1  0
 15 16  1  0
 16 17  2  0
 17 18  1  0
 18 19  2  0
 19 20  1  0
 20 21  1  0
 20 22  2  0
 15  8  1  0
 22 16  1  0
M  END
>  <zinc_id>  (1129) 
ZINC000034801985

>  <ortholog_name>  (1129) 
DRTS_PLAFK

>  <gene_name>  (1129) 
DRTS_PLAFK

>  <affinity>  (1129) 
8.40

>  <chembldocid>  (1129) 
17662

>  <title>  (1129) 
None

>  <reference.pubmed_id>  (1129) 
14736247

>  <reference.doi>  (1129) 
None

>  <reference.chembl_id>  (1129) 
CHEMBL1138835

>  <reference.journal>  (1129) 
J. Med. Chem.

>  <reference.year>  (1129) 
2004

$$$$

     RDKit          3D

 22 23  0  0  0  0  0  0  0  0999 V2000
    5.9601    1.8222   -0.1412 C   0  0  0  0  0  0  0  0  0  0  0  0
    4.8105    1.0578    0.5057 C   0  0  0  0  0  0  0  0  0  0  0  0
    4.4475   -0.1651   -0.3309 C   0  0  0  0  0  0  0  0  0  0  0  0
    3.3048   -0.8586    0.3824 C   0  0  0  0  0  0  0  0  0  0  0  0
    2.1520    0.1103    0.4722 C   0  0  0  0  0  0  0  0  0  0  0  0
    0.9505   -0.4448    1.1565 C   0  0  0  0  0  0  0  0  0  0  0  0
    0.2935   -1.6046    0.6330 C   0  0  0  0  0  0  0  0  0  0  0  0
   -0.3314   -1.4795   -0.8330 C   0  0  2  0  0  0  0  0  0  0  0  0
    0.8904   -1.1447   -1.6496 N   0  0  0  0  0  0  0  0  0  0  0  0
    1.1872   -0.0972   -2.2086 C   0  0  0  0  0  0  0  0  0  0  0  0
    2.4108    0.0490   -2.9652 N   0  0  0  0  0  0  0  0  0  0  0  0
    0.3284    0.9864   -2.0349 N   0  0  0  0  0  0  0  0  0  0  0  0
   -0.7259    0.9813   -1.3425 C   0  0  0  0  0  0  0  0  0  0  0  0
   -1.5168    2.1530   -1.2518 N   0  0  0  0  0  0  0  0  0  0  0  0
   -1.0729   -0.1375   -0.6478 N   0  0  0  0  0  0  0  0  0  0  0  0
   -2.1505   -0.2038    0.3246 C   0  0  0  0  0  0  0  0  0  0  0  0
   -2.8802    0.9290    0.5735 C   0  0  0  0  0  0  0  0  0  0  0  0
   -3.9098    0.9245    1.4821 C   0  0  0  0  0  0  0  0  0  0  0  0
   -4.2362   -0.2014    2.1610 C   0  0  0  0  0  0  0  0  0  0  0  0
   -3.4920   -1.3540    1.9061 C   0  0  0  0  0  0  0  0  0  0  0  0
   -3.9530   -2.7835    2.8092 Cl  0  0  0  0  0  0  0  0  0  0  0  0
   -2.4671   -1.3423    0.9992 C   0  0  0  0  0  0  0  0  0  0  0  0
  1  2  1  0
  2  3  1  0
  3  4  1  0
  4  5  1  0
  5  6  1  0
  6  7  1  0
  8  7  1  1
  8  9  1  0
  9 10  2  0
 10 11  1  0
 10 12  1  0
 12 13  2  0
 13 14  1  0
 13 15  1  0
 15 16  1  0
 16 17  2  0
 17 18  1  0
 18 19  2  0
 19 20  1  0
 20 21  1  0
 20 22  2  0
 15  8  1  0
 22 16  1  0
M  END
>  <zinc_id>  (1130) 
ZINC000034801985

>  <ortholog_name>  (1130) 
DRTS_PLAFK

>  <gene_name>  (1130) 
DRTS_PLAFK

>  <affinity>  (1130) 
7.40

>  <chembldocid>  (1130) 
17662

>  <title>  (1130) 
None

>  <reference.pubmed_id>  (1130) 
14736247

>  <reference.doi>  (1130) 
None

>  <reference.chembl_id>  (1130) 
CHEMBL1138835

>  <reference.journal>  (1130) 
J. Med. Chem.

>  <reference.year>  (1130) 
2004

$$$$

     RDKit          3D

 22 23  0  0  0  0  0  0  0  0999 V2000
    4.7369    1.6170    0.2020 C   0  0  0  0  0  0  0  0  0  0  0  0
    3.2352    1.7081    0.3261 C   0  0  0  0  0  0  0  0  0  0  0  0
    2.7441    0.2857    0.6319 C   0  0  0  0  0  0  0  0  0  0  0  0
    3.1883   -0.5476   -0.5443 C   0  0  0  0  0  0  0  0  0  0  0  0
    2.6282   -0.1132   -1.8580 C   0  0  0  0  0  0  0  0  0  0  0  0
    1.1254   -0.2050   -1.8084 C   0  0  0  0  0  0  0  0  0  0  0  0
    0.6495   -1.6052   -1.5070 C   0  0  0  0  0  0  0  0  0  0  0  0
   -0.9725   -1.3739   -1.5659 C   0  0  1  0  0  0  0  0  0  0  0  0
   -1.2918   -2.8375   -1.2451 N   0  0  0  0  0  0  0  0  0  0  0  0
   -1.4043   -3.4172   -0.1963 C   0  0  0  0  0  0  0  0  0  0  0  0
   -1.7131   -4.8536   -0.1840 N   0  0  0  0  0  0  0  0  0  0  0  0
   -1.3109   -2.6969    0.9990 N   0  0  0  0  0  0  0  0  0  0  0  0
   -1.1228   -1.4460    0.9862 C   0  0  0  0  0  0  0  0  0  0  0  0
   -1.0098   -0.6589    2.2040 N   0  0  0  0  0  0  0  0  0  0  0  0
   -1.0976   -0.6953   -0.1864 N   0  0  0  0  0  0  0  0  0  0  0  0
   -1.2350    0.7400   -0.2122 C   0  0  0  0  0  0  0  0  0  0  0  0
   -2.5455    1.2316   -0.3446 C   0  0  0  0  0  0  0  0  0  0  0  0
   -2.8409    2.5641   -0.3816 C   0  0  0  0  0  0  0  0  0  0  0  0
   -1.8079    3.4680   -0.2848 C   0  0  0  0  0  0  0  0  0  0  0  0
   -0.5142    3.0065   -0.1543 C   0  0  0  0  0  0  0  0  0  0  0  0
    0.8131    4.1794   -0.0304 Cl  0  0  0  0  0  0  0  0  0  0  0  0
   -0.2545    1.6502   -0.1207 C   0  0  0  0  0  0  0  0  0  0  0  0
  1  2  1  0
  2  3  1  0
  3  4  1  0
  4  5  1  0
  5  6  1  0
  6  7  1  0
  8  7  1  1
  8  9  1  0
  9 10  2  0
 10 11  1  0
 10 12  1  0
 12 13  2  0
 13 14  1  0
 13 15  1  0
 15 16  1  0
 16 17  2  0
 17 18  1  0
 18 19  2  0
 19 20  1  0
 20 21  1  0
 20 22  2  0
 15  8  1  0
 22 16  1  0
M  END
>  <zinc_id>  (1131) 
ZINC000034801986

>  <ortholog_name>  (1131) 
DRTS_PLAFK

>  <gene_name>  (1131) 
DRTS_PLAFK

>  <affinity>  (1131) 
9.52

>  <chembldocid>  (1131) 
17662

>  <title>  (1131) 
None

>  <reference.pubmed_id>  (1131) 
14736247

>  <reference.doi>  (1131) 
None

>  <reference.chembl_id>  (1131) 
CHEMBL1138835

>  <reference.journal>  (1131) 
J. Med. Chem.

>  <reference.year>  (1131) 
2004

$$$$

     RDKit          3D

 22 23  0  0  0  0  0  0  0  0999 V2000
    4.7369    1.6170    0.2020 C   0  0  0  0  0  0  0  0  0  0  0  0
    3.2352    1.7081    0.3261 C   0  0  0  0  0  0  0  0  0  0  0  0
    2.7441    0.2857    0.6319 C   0  0  0  0  0  0  0  0  0  0  0  0
    3.1883   -0.5476   -0.5443 C   0  0  0  0  0  0  0  0  0  0  0  0
    2.6282   -0.1132   -1.8580 C   0  0  0  0  0  0  0  0  0  0  0  0
    1.1254   -0.2050   -1.8084 C   0  0  0  0  0  0  0  0  0  0  0  0
    0.6495   -1.6052   -1.5070 C   0  0  0  0  0  0  0  0  0  0  0  0
   -0.9725   -1.3739   -1.5659 C   0  0  1  0  0  0  0  0  0  0  0  0
   -1.2918   -2.8375   -1.2451 N   0  0  0  0  0  0  0  0  0  0  0  0
   -1.4043   -3.4172   -0.1963 C   0  0  0  0  0  0  0  0  0  0  0  0
   -1.7131   -4.8536   -0.1840 N   0  0  0  0  0  0  0  0  0  0  0  0
   -1.3109   -2.6969    0.9990 N   0  0  0  0  0  0  0  0  0  0  0  0
   -1.1228   -1.4460    0.9862 C   0  0  0  0  0  0  0  0  0  0  0  0
   -1.0098   -0.6589    2.2040 N   0  0  0  0  0  0  0  0  0  0  0  0
   -1.0976   -0.6953   -0.1864 N   0  0  0  0  0  0  0  0  0  0  0  0
   -1.2350    0.7400   -0.2122 C   0  0  0  0  0  0  0  0  0  0  0  0
   -2.5455    1.2316   -0.3446 C   0  0  0  0  0  0  0  0  0  0  0  0
   -2.8409    2.5641   -0.3816 C   0  0  0  0  0  0  0  0  0  0  0  0
   -1.8079    3.4680   -0.2848 C   0  0  0  0  0  0  0  0  0  0  0  0
   -0.5142    3.0065   -0.1543 C   0  0  0  0  0  0  0  0  0  0  0  0
    0.8131    4.1794   -0.0304 Cl  0  0  0  0  0  0  0  0  0  0  0  0
   -0.2545    1.6502   -0.1207 C   0  0  0  0  0  0  0  0  0  0  0  0
  1  2  1  0
  2  3  1  0
  3  4  1  0
  4  5  1  0
  5  6  1  0
  6  7  1  0
  8  7  1  1
  8  9  1  0
  9 10  2  0
 10 11  1  0
 10 12  1  0
 12 13  2  0
 13 14  1  0
 13 15  1  0
 15 16  1  0
 16 17  2  0
 17 18  1  0
 18 19  2  0
 19 20  1  0
 20 21  1  0
 20 22  2  0
 15  8  1  0
 22 16  1  0
M  END
>  <zinc_id>  (1132) 
ZINC000034801986

>  <ortholog_name>  (1132) 
DRTS_PLAFK

>  <gene_name>  (1132) 
DRTS_PLAFK

>  <affinity>  (1132) 
9.10

>  <chembldocid>  (1132) 
17662

>  <title>  (1132) 
None

>  <reference.pubmed_id>  (1132) 
14736247

>  <reference.doi>  (1132) 
None

>  <reference.chembl_id>  (1132) 
CHEMBL1138835

>  <reference.journal>  (1132) 
J. Med. Chem.

>  <reference.year>  (1132) 
2004

$$$$

     RDKit          3D

 22 23  0  0  0  0  0  0  0  0999 V2000
    4.7369    1.6170    0.2020 C   0  0  0  0  0  0  0  0  0  0  0  0
    3.2352    1.7081    0.3261 C   0  0  0  0  0  0  0  0  0  0  0  0
    2.7441    0.2857    0.6319 C   0  0  0  0  0  0  0  0  0  0  0  0
    3.1883   -0.5476   -0.5443 C   0  0  0  0  0  0  0  0  0  0  0  0
    2.6282   -0.1132   -1.8580 C   0  0  0  0  0  0  0  0  0  0  0  0
    1.1254   -0.2050   -1.8084 C   0  0  0  0  0  0  0  0  0  0  0  0
    0.6495   -1.6052   -1.5070 C   0  0  0  0  0  0  0  0  0  0  0  0
   -0.9725   -1.3739   -1.5659 C   0  0  1  0  0  0  0  0  0  0  0  0
   -1.2918   -2.8375   -1.2451 N   0  0  0  0  0  0  0  0  0  0  0  0
   -1.4043   -3.4172   -0.1963 C   0  0  0  0  0  0  0  0  0  0  0  0
   -1.7131   -4.8536   -0.1840 N   0  0  0  0  0  0  0  0  0  0  0  0
   -1.3109   -2.6969    0.9990 N   0  0  0  0  0  0  0  0  0  0  0  0
   -1.1228   -1.4460    0.9862 C   0  0  0  0  0  0  0  0  0  0  0  0
   -1.0098   -0.6589    2.2040 N   0  0  0  0  0  0  0  0  0  0  0  0
   -1.0976   -0.6953   -0.1864 N   0  0  0  0  0  0  0  0  0  0  0  0
   -1.2350    0.7400   -0.2122 C   0  0  0  0  0  0  0  0  0  0  0  0
   -2.5455    1.2316   -0.3446 C   0  0  0  0  0  0  0  0  0  0  0  0
   -2.8409    2.5641   -0.3816 C   0  0  0  0  0  0  0  0  0  0  0  0
   -1.8079    3.4680   -0.2848 C   0  0  0  0  0  0  0  0  0  0  0  0
   -0.5142    3.0065   -0.1543 C   0  0  0  0  0  0  0  0  0  0  0  0
    0.8131    4.1794   -0.0304 Cl  0  0  0  0  0  0  0  0  0  0  0  0
   -0.2545    1.6502   -0.1207 C   0  0  0  0  0  0  0  0  0  0  0  0
  1  2  1  0
  2  3  1  0
  3  4  1  0
  4  5  1  0
  5  6  1  0
  6  7  1  0
  8  7  1  1
  8  9  1  0
  9 10  2  0
 10 11  1  0
 10 12  1  0
 12 13  2  0
 13 14  1  0
 13 15  1  0
 15 16  1  0
 16 17  2  0
 17 18  1  0
 18 19  2  0
 19 20  1  0
 20 21  1  0
 20 22  2  0
 15  8  1  0
 22 16  1  0
M  END
>  <zinc_id>  (1133) 
ZINC000034801986

>  <ortholog_name>  (1133) 
DRTS_PLAFK

>  <gene_name>  (1133) 
DRTS_PLAFK

>  <affinity>  (1133) 
9.00

>  <chembldocid>  (1133) 
17662

>  <title>  (1133) 
None

>  <reference.pubmed_id>  (1133) 
14736247

>  <reference.doi>  (1133) 
None

>  <reference.chembl_id>  (1133) 
CHEMBL1138835

>  <reference.journal>  (1133) 
J. Med. Chem.

>  <reference.year>  (1133) 
2004

$$$$

     RDKit          3D

 22 23  0  0  0  0  0  0  0  0999 V2000
    4.7369    1.6170    0.2020 C   0  0  0  0  0  0  0  0  0  0  0  0
    3.2352    1.7081    0.3261 C   0  0  0  0  0  0  0  0  0  0  0  0
    2.7441    0.2857    0.6319 C   0  0  0  0  0  0  0  0  0  0  0  0
    3.1883   -0.5476   -0.5443 C   0  0  0  0  0  0  0  0  0  0  0  0
    2.6282   -0.1132   -1.8580 C   0  0  0  0  0  0  0  0  0  0  0  0
    1.1254   -0.2050   -1.8084 C   0  0  0  0  0  0  0  0  0  0  0  0
    0.6495   -1.6052   -1.5070 C   0  0  0  0  0  0  0  0  0  0  0  0
   -0.9725   -1.3739   -1.5659 C   0  0  1  0  0  0  0  0  0  0  0  0
   -1.2918   -2.8375   -1.2451 N   0  0  0  0  0  0  0  0  0  0  0  0
   -1.4043   -3.4172   -0.1963 C   0  0  0  0  0  0  0  0  0  0  0  0
   -1.7131   -4.8536   -0.1840 N   0  0  0  0  0  0  0  0  0  0  0  0
   -1.3109   -2.6969    0.9990 N   0  0  0  0  0  0  0  0  0  0  0  0
   -1.1228   -1.4460    0.9862 C   0  0  0  0  0  0  0  0  0  0  0  0
   -1.0098   -0.6589    2.2040 N   0  0  0  0  0  0  0  0  0  0  0  0
   -1.0976   -0.6953   -0.1864 N   0  0  0  0  0  0  0  0  0  0  0  0
   -1.2350    0.7400   -0.2122 C   0  0  0  0  0  0  0  0  0  0  0  0
   -2.5455    1.2316   -0.3446 C   0  0  0  0  0  0  0  0  0  0  0  0
   -2.8409    2.5641   -0.3816 C   0  0  0  0  0  0  0  0  0  0  0  0
   -1.8079    3.4680   -0.2848 C   0  0  0  0  0  0  0  0  0  0  0  0
   -0.5142    3.0065   -0.1543 C   0  0  0  0  0  0  0  0  0  0  0  0
    0.8131    4.1794   -0.0304 Cl  0  0  0  0  0  0  0  0  0  0  0  0
   -0.2545    1.6502   -0.1207 C   0  0  0  0  0  0  0  0  0  0  0  0
  1  2  1  0
  2  3  1  0
  3  4  1  0
  4  5  1  0
  5  6  1  0
  6  7  1  0
  8  7  1  1
  8  9  1  0
  9 10  2  0
 10 11  1  0
 10 12  1  0
 12 13  2  0
 13 14  1  0
 13 15  1  0
 15 16  1  0
 16 17  2  0
 17 18  1  0
 18 19  2  0
 19 20  1  0
 20 21  1  0
 20 22  2  0
 15  8  1  0
 22 16  1  0
M  END
>  <zinc_id>  (1134) 
ZINC000034801986

>  <ortholog_name>  (1134) 
DRTS_PLAFK

>  <gene_name>  (1134) 
DRTS_PLAFK

>  <affinity>  (1134) 
6.85

>  <chembldocid>  (1134) 
17662

>  <title>  (1134) 
None

>  <reference.pubmed_id>  (1134) 
14736247

>  <reference.doi>  (1134) 
None

>  <reference.chembl_id>  (1134) 
CHEMBL1138835

>  <reference.journal>  (1134) 
J. Med. Chem.

>  <reference.year>  (1134) 
2004

$$$$

     RDKit          3D

 22 23  0  0  0  0  0  0  0  0999 V2000
    4.7369    1.6170    0.2020 C   0  0  0  0  0  0  0  0  0  0  0  0
    3.2352    1.7081    0.3261 C   0  0  0  0  0  0  0  0  0  0  0  0
    2.7441    0.2857    0.6319 C   0  0  0  0  0  0  0  0  0  0  0  0
    3.1883   -0.5476   -0.5443 C   0  0  0  0  0  0  0  0  0  0  0  0
    2.6282   -0.1132   -1.8580 C   0  0  0  0  0  0  0  0  0  0  0  0
    1.1254   -0.2050   -1.8084 C   0  0  0  0  0  0  0  0  0  0  0  0
    0.6495   -1.6052   -1.5070 C   0  0  0  0  0  0  0  0  0  0  0  0
   -0.9725   -1.3739   -1.5659 C   0  0  1  0  0  0  0  0  0  0  0  0
   -1.2918   -2.8375   -1.2451 N   0  0  0  0  0  0  0  0  0  0  0  0
   -1.4043   -3.4172   -0.1963 C   0  0  0  0  0  0  0  0  0  0  0  0
   -1.7131   -4.8536   -0.1840 N   0  0  0  0  0  0  0  0  0  0  0  0
   -1.3109   -2.6969    0.9990 N   0  0  0  0  0  0  0  0  0  0  0  0
   -1.1228   -1.4460    0.9862 C   0  0  0  0  0  0  0  0  0  0  0  0
   -1.0098   -0.6589    2.2040 N   0  0  0  0  0  0  0  0  0  0  0  0
   -1.0976   -0.6953   -0.1864 N   0  0  0  0  0  0  0  0  0  0  0  0
   -1.2350    0.7400   -0.2122 C   0  0  0  0  0  0  0  0  0  0  0  0
   -2.5455    1.2316   -0.3446 C   0  0  0  0  0  0  0  0  0  0  0  0
   -2.8409    2.5641   -0.3816 C   0  0  0  0  0  0  0  0  0  0  0  0
   -1.8079    3.4680   -0.2848 C   0  0  0  0  0  0  0  0  0  0  0  0
   -0.5142    3.0065   -0.1543 C   0  0  0  0  0  0  0  0  0  0  0  0
    0.8131    4.1794   -0.0304 Cl  0  0  0  0  0  0  0  0  0  0  0  0
   -0.2545    1.6502   -0.1207 C   0  0  0  0  0  0  0  0  0  0  0  0
  1  2  1  0
  2  3  1  0
  3  4  1  0
  4  5  1  0
  5  6  1  0
  6  7  1  0
  8  7  1  1
  8  9  1  0
  9 10  2  0
 10 11  1  0
 10 12  1  0
 12 13  2  0
 13 14  1  0
 13 15  1  0
 15 16  1  0
 16 17  2  0
 17 18  1  0
 18 19  2  0
 19 20  1  0
 20 21  1  0
 20 22  2  0
 15  8  1  0
 22 16  1  0
M  END
>  <zinc_id>  (1135) 
ZINC000034801986

>  <ortholog_name>  (1135) 
DRTS_PLAFK

>  <gene_name>  (1135) 
DRTS_PLAFK

>  <affinity>  (1135) 
8.57

>  <chembldocid>  (1135) 
17662

>  <title>  (1135) 
None

>  <reference.pubmed_id>  (1135) 
14736247

>  <reference.doi>  (1135) 
None

>  <reference.chembl_id>  (1135) 
CHEMBL1138835

>  <reference.journal>  (1135) 
J. Med. Chem.

>  <reference.year>  (1135) 
2004

$$$$

     RDKit          3D

 22 23  0  0  0  0  0  0  0  0999 V2000
    4.7369    1.6170    0.2020 C   0  0  0  0  0  0  0  0  0  0  0  0
    3.2352    1.7081    0.3261 C   0  0  0  0  0  0  0  0  0  0  0  0
    2.7441    0.2857    0.6319 C   0  0  0  0  0  0  0  0  0  0  0  0
    3.1883   -0.5476   -0.5443 C   0  0  0  0  0  0  0  0  0  0  0  0
    2.6282   -0.1132   -1.8580 C   0  0  0  0  0  0  0  0  0  0  0  0
    1.1254   -0.2050   -1.8084 C   0  0  0  0  0  0  0  0  0  0  0  0
    0.6495   -1.6052   -1.5070 C   0  0  0  0  0  0  0  0  0  0  0  0
   -0.9725   -1.3739   -1.5659 C   0  0  1  0  0  0  0  0  0  0  0  0
   -1.2918   -2.8375   -1.2451 N   0  0  0  0  0  0  0  0  0  0  0  0
   -1.4043   -3.4172   -0.1963 C   0  0  0  0  0  0  0  0  0  0  0  0
   -1.7131   -4.8536   -0.1840 N   0  0  0  0  0  0  0  0  0  0  0  0
   -1.3109   -2.6969    0.9990 N   0  0  0  0  0  0  0  0  0  0  0  0
   -1.1228   -1.4460    0.9862 C   0  0  0  0  0  0  0  0  0  0  0  0
   -1.0098   -0.6589    2.2040 N   0  0  0  0  0  0  0  0  0  0  0  0
   -1.0976   -0.6953   -0.1864 N   0  0  0  0  0  0  0  0  0  0  0  0
   -1.2350    0.7400   -0.2122 C   0  0  0  0  0  0  0  0  0  0  0  0
   -2.5455    1.2316   -0.3446 C   0  0  0  0  0  0  0  0  0  0  0  0
   -2.8409    2.5641   -0.3816 C   0  0  0  0  0  0  0  0  0  0  0  0
   -1.8079    3.4680   -0.2848 C   0  0  0  0  0  0  0  0  0  0  0  0
   -0.5142    3.0065   -0.1543 C   0  0  0  0  0  0  0  0  0  0  0  0
    0.8131    4.1794   -0.0304 Cl  0  0  0  0  0  0  0  0  0  0  0  0
   -0.2545    1.6502   -0.1207 C   0  0  0  0  0  0  0  0  0  0  0  0
  1  2  1  0
  2  3  1  0
  3  4  1  0
  4  5  1  0
  5  6  1  0
  6  7  1  0
  8  7  1  1
  8  9  1  0
  9 10  2  0
 10 11  1  0
 10 12  1  0
 12 13  2  0
 13 14  1  0
 13 15  1  0
 15 16  1  0
 16 17  2  0
 17 18  1  0
 18 19  2  0
 19 20  1  0
 20 21  1  0
 20 22  2  0
 15  8  1  0
 22 16  1  0
M  END
>  <zinc_id>  (1136) 
ZINC000034801986

>  <ortholog_name>  (1136) 
DRTS_PLAFK

>  <gene_name>  (1136) 
DRTS_PLAFK

>  <affinity>  (1136) 
5.60

>  <chembldocid>  (1136) 
17662

>  <title>  (1136) 
None

>  <reference.pubmed_id>  (1136) 
14736247

>  <reference.doi>  (1136) 
None

>  <reference.chembl_id>  (1136) 
CHEMBL1138835

>  <reference.journal>  (1136) 
J. Med. Chem.

>  <reference.year>  (1136) 
2004

$$$$

     RDKit          3D

 22 23  0  0  0  0  0  0  0  0999 V2000
    4.7369    1.6170    0.2020 C   0  0  0  0  0  0  0  0  0  0  0  0
    3.2352    1.7081    0.3261 C   0  0  0  0  0  0  0  0  0  0  0  0
    2.7441    0.2857    0.6319 C   0  0  0  0  0  0  0  0  0  0  0  0
    3.1883   -0.5476   -0.5443 C   0  0  0  0  0  0  0  0  0  0  0  0
    2.6282   -0.1132   -1.8580 C   0  0  0  0  0  0  0  0  0  0  0  0
    1.1254   -0.2050   -1.8084 C   0  0  0  0  0  0  0  0  0  0  0  0
    0.6495   -1.6052   -1.5070 C   0  0  0  0  0  0  0  0  0  0  0  0
   -0.9725   -1.3739   -1.5659 C   0  0  1  0  0  0  0  0  0  0  0  0
   -1.2918   -2.8375   -1.2451 N   0  0  0  0  0  0  0  0  0  0  0  0
   -1.4043   -3.4172   -0.1963 C   0  0  0  0  0  0  0  0  0  0  0  0
   -1.7131   -4.8536   -0.1840 N   0  0  0  0  0  0  0  0  0  0  0  0
   -1.3109   -2.6969    0.9990 N   0  0  0  0  0  0  0  0  0  0  0  0
   -1.1228   -1.4460    0.9862 C   0  0  0  0  0  0  0  0  0  0  0  0
   -1.0098   -0.6589    2.2040 N   0  0  0  0  0  0  0  0  0  0  0  0
   -1.0976   -0.6953   -0.1864 N   0  0  0  0  0  0  0  0  0  0  0  0
   -1.2350    0.7400   -0.2122 C   0  0  0  0  0  0  0  0  0  0  0  0
   -2.5455    1.2316   -0.3446 C   0  0  0  0  0  0  0  0  0  0  0  0
   -2.8409    2.5641   -0.3816 C   0  0  0  0  0  0  0  0  0  0  0  0
   -1.8079    3.4680   -0.2848 C   0  0  0  0  0  0  0  0  0  0  0  0
   -0.5142    3.0065   -0.1543 C   0  0  0  0  0  0  0  0  0  0  0  0
    0.8131    4.1794   -0.0304 Cl  0  0  0  0  0  0  0  0  0  0  0  0
   -0.2545    1.6502   -0.1207 C   0  0  0  0  0  0  0  0  0  0  0  0
  1  2  1  0
  2  3  1  0
  3  4  1  0
  4  5  1  0
  5  6  1  0
  6  7  1  0
  8  7  1  1
  8  9  1  0
  9 10  2  0
 10 11  1  0
 10 12  1  0
 12 13  2  0
 13 14  1  0
 13 15  1  0
 15 16  1  0
 16 17  2  0
 17 18  1  0
 18 19  2  0
 19 20  1  0
 20 21  1  0
 20 22  2  0
 15  8  1  0
 22 16  1  0
M  END
>  <zinc_id>  (1137) 
ZINC000034801986

>  <ortholog_name>  (1137) 
DRTS_PLAFK

>  <gene_name>  (1137) 
DRTS_PLAFK

>  <affinity>  (1137) 
6.59

>  <chembldocid>  (1137) 
17662

>  <title>  (1137) 
None

>  <reference.pubmed_id>  (1137) 
14736247

>  <reference.doi>  (1137) 
None

>  <reference.chembl_id>  (1137) 
CHEMBL1138835

>  <reference.journal>  (1137) 
J. Med. Chem.

>  <reference.year>  (1137) 
2004

$$$$

     RDKit          3D

 22 23  0  0  0  0  0  0  0  0999 V2000
    4.7369    1.6170    0.2020 C   0  0  0  0  0  0  0  0  0  0  0  0
    3.2352    1.7081    0.3261 C   0  0  0  0  0  0  0  0  0  0  0  0
    2.7441    0.2857    0.6319 C   0  0  0  0  0  0  0  0  0  0  0  0
    3.1883   -0.5476   -0.5443 C   0  0  0  0  0  0  0  0  0  0  0  0
    2.6282   -0.1132   -1.8580 C   0  0  0  0  0  0  0  0  0  0  0  0
    1.1254   -0.2050   -1.8084 C   0  0  0  0  0  0  0  0  0  0  0  0
    0.6495   -1.6052   -1.5070 C   0  0  0  0  0  0  0  0  0  0  0  0
   -0.9725   -1.3739   -1.5659 C   0  0  1  0  0  0  0  0  0  0  0  0
   -1.2918   -2.8375   -1.2451 N   0  0  0  0  0  0  0  0  0  0  0  0
   -1.4043   -3.4172   -0.1963 C   0  0  0  0  0  0  0  0  0  0  0  0
   -1.7131   -4.8536   -0.1840 N   0  0  0  0  0  0  0  0  0  0  0  0
   -1.3109   -2.6969    0.9990 N   0  0  0  0  0  0  0  0  0  0  0  0
   -1.1228   -1.4460    0.9862 C   0  0  0  0  0  0  0  0  0  0  0  0
   -1.0098   -0.6589    2.2040 N   0  0  0  0  0  0  0  0  0  0  0  0
   -1.0976   -0.6953   -0.1864 N   0  0  0  0  0  0  0  0  0  0  0  0
   -1.2350    0.7400   -0.2122 C   0  0  0  0  0  0  0  0  0  0  0  0
   -2.5455    1.2316   -0.3446 C   0  0  0  0  0  0  0  0  0  0  0  0
   -2.8409    2.5641   -0.3816 C   0  0  0  0  0  0  0  0  0  0  0  0
   -1.8079    3.4680   -0.2848 C   0  0  0  0  0  0  0  0  0  0  0  0
   -0.5142    3.0065   -0.1543 C   0  0  0  0  0  0  0  0  0  0  0  0
    0.8131    4.1794   -0.0304 Cl  0  0  0  0  0  0  0  0  0  0  0  0
   -0.2545    1.6502   -0.1207 C   0  0  0  0  0  0  0  0  0  0  0  0
  1  2  1  0
  2  3  1  0
  3  4  1  0
  4  5  1  0
  5  6  1  0
  6  7  1  0
  8  7  1  1
  8  9  1  0
  9 10  2  0
 10 11  1  0
 10 12  1  0
 12 13  2  0
 13 14  1  0
 13 15  1  0
 15 16  1  0
 16 17  2  0
 17 18  1  0
 18 19  2  0
 19 20  1  0
 20 21  1  0
 20 22  2  0
 15  8  1  0
 22 16  1  0
M  END
>  <zinc_id>  (1138) 
ZINC000034801986

>  <ortholog_name>  (1138) 
DRTS_PLAFK

>  <gene_name>  (1138) 
DRTS_PLAFK

>  <affinity>  (1138) 
8.42

>  <chembldocid>  (1138) 
17662

>  <title>  (1138) 
None

>  <reference.pubmed_id>  (1138) 
14736247

>  <reference.doi>  (1138) 
None

>  <reference.chembl_id>  (1138) 
CHEMBL1138835

>  <reference.journal>  (1138) 
J. Med. Chem.

>  <reference.year>  (1138) 
2004

$$$$

     RDKit          3D

 22 23  0  0  0  0  0  0  0  0999 V2000
    4.7369    1.6170    0.2020 C   0  0  0  0  0  0  0  0  0  0  0  0
    3.2352    1.7081    0.3261 C   0  0  0  0  0  0  0  0  0  0  0  0
    2.7441    0.2857    0.6319 C   0  0  0  0  0  0  0  0  0  0  0  0
    3.1883   -0.5476   -0.5443 C   0  0  0  0  0  0  0  0  0  0  0  0
    2.6282   -0.1132   -1.8580 C   0  0  0  0  0  0  0  0  0  0  0  0
    1.1254   -0.2050   -1.8084 C   0  0  0  0  0  0  0  0  0  0  0  0
    0.6495   -1.6052   -1.5070 C   0  0  0  0  0  0  0  0  0  0  0  0
   -0.9725   -1.3739   -1.5659 C   0  0  1  0  0  0  0  0  0  0  0  0
   -1.2918   -2.8375   -1.2451 N   0  0  0  0  0  0  0  0  0  0  0  0
   -1.4043   -3.4172   -0.1963 C   0  0  0  0  0  0  0  0  0  0  0  0
   -1.7131   -4.8536   -0.1840 N   0  0  0  0  0  0  0  0  0  0  0  0
   -1.3109   -2.6969    0.9990 N   0  0  0  0  0  0  0  0  0  0  0  0
   -1.1228   -1.4460    0.9862 C   0  0  0  0  0  0  0  0  0  0  0  0
   -1.0098   -0.6589    2.2040 N   0  0  0  0  0  0  0  0  0  0  0  0
   -1.0976   -0.6953   -0.1864 N   0  0  0  0  0  0  0  0  0  0  0  0
   -1.2350    0.7400   -0.2122 C   0  0  0  0  0  0  0  0  0  0  0  0
   -2.5455    1.2316   -0.3446 C   0  0  0  0  0  0  0  0  0  0  0  0
   -2.8409    2.5641   -0.3816 C   0  0  0  0  0  0  0  0  0  0  0  0
   -1.8079    3.4680   -0.2848 C   0  0  0  0  0  0  0  0  0  0  0  0
   -0.5142    3.0065   -0.1543 C   0  0  0  0  0  0  0  0  0  0  0  0
    0.8131    4.1794   -0.0304 Cl  0  0  0  0  0  0  0  0  0  0  0  0
   -0.2545    1.6502   -0.1207 C   0  0  0  0  0  0  0  0  0  0  0  0
  1  2  1  0
  2  3  1  0
  3  4  1  0
  4  5  1  0
  5  6  1  0
  6  7  1  0
  8  7  1  1
  8  9  1  0
  9 10  2  0
 10 11  1  0
 10 12  1  0
 12 13  2  0
 13 14  1  0
 13 15  1  0
 15 16  1  0
 16 17  2  0
 17 18  1  0
 18 19  2  0
 19 20  1  0
 20 21  1  0
 20 22  2  0
 15  8  1  0
 22 16  1  0
M  END
>  <zinc_id>  (1139) 
ZINC000034801986

>  <ortholog_name>  (1139) 
DRTS_PLAFK

>  <gene_name>  (1139) 
DRTS_PLAFK

>  <affinity>  (1139) 
6.48

>  <chembldocid>  (1139) 
17662

>  <title>  (1139) 
None

>  <reference.pubmed_id>  (1139) 
14736247

>  <reference.doi>  (1139) 
None

>  <reference.chembl_id>  (1139) 
CHEMBL1138835

>  <reference.journal>  (1139) 
J. Med. Chem.

>  <reference.year>  (1139) 
2004

$$$$

     RDKit          3D

 22 23  0  0  0  0  0  0  0  0999 V2000
    4.7369    1.6170    0.2020 C   0  0  0  0  0  0  0  0  0  0  0  0
    3.2352    1.7081    0.3261 C   0  0  0  0  0  0  0  0  0  0  0  0
    2.7441    0.2857    0.6319 C   0  0  0  0  0  0  0  0  0  0  0  0
    3.1883   -0.5476   -0.5443 C   0  0  0  0  0  0  0  0  0  0  0  0
    2.6282   -0.1132   -1.8580 C   0  0  0  0  0  0  0  0  0  0  0  0
    1.1254   -0.2050   -1.8084 C   0  0  0  0  0  0  0  0  0  0  0  0
    0.6495   -1.6052   -1.5070 C   0  0  0  0  0  0  0  0  0  0  0  0
   -0.9725   -1.3739   -1.5659 C   0  0  1  0  0  0  0  0  0  0  0  0
   -1.2918   -2.8375   -1.2451 N   0  0  0  0  0  0  0  0  0  0  0  0
   -1.4043   -3.4172   -0.1963 C   0  0  0  0  0  0  0  0  0  0  0  0
   -1.7131   -4.8536   -0.1840 N   0  0  0  0  0  0  0  0  0  0  0  0
   -1.3109   -2.6969    0.9990 N   0  0  0  0  0  0  0  0  0  0  0  0
   -1.1228   -1.4460    0.9862 C   0  0  0  0  0  0  0  0  0  0  0  0
   -1.0098   -0.6589    2.2040 N   0  0  0  0  0  0  0  0  0  0  0  0
   -1.0976   -0.6953   -0.1864 N   0  0  0  0  0  0  0  0  0  0  0  0
   -1.2350    0.7400   -0.2122 C   0  0  0  0  0  0  0  0  0  0  0  0
   -2.5455    1.2316   -0.3446 C   0  0  0  0  0  0  0  0  0  0  0  0
   -2.8409    2.5641   -0.3816 C   0  0  0  0  0  0  0  0  0  0  0  0
   -1.8079    3.4680   -0.2848 C   0  0  0  0  0  0  0  0  0  0  0  0
   -0.5142    3.0065   -0.1543 C   0  0  0  0  0  0  0  0  0  0  0  0
    0.8131    4.1794   -0.0304 Cl  0  0  0  0  0  0  0  0  0  0  0  0
   -0.2545    1.6502   -0.1207 C   0  0  0  0  0  0  0  0  0  0  0  0
  1  2  1  0
  2  3  1  0
  3  4  1  0
  4  5  1  0
  5  6  1  0
  6  7  1  0
  8  7  1  1
  8  9  1  0
  9 10  2  0
 10 11  1  0
 10 12  1  0
 12 13  2  0
 13 14  1  0
 13 15  1  0
 15 16  1  0
 16 17  2  0
 17 18  1  0
 18 19  2  0
 19 20  1  0
 20 21  1  0
 20 22  2  0
 15  8  1  0
 22 16  1  0
M  END
>  <zinc_id>  (1140) 
ZINC000034801986

>  <ortholog_name>  (1140) 
DRTS_PLAFK

>  <gene_name>  (1140) 
DRTS_PLAFK

>  <affinity>  (1140) 
8.40

>  <chembldocid>  (1140) 
17662

>  <title>  (1140) 
None

>  <reference.pubmed_id>  (1140) 
14736247

>  <reference.doi>  (1140) 
None

>  <reference.chembl_id>  (1140) 
CHEMBL1138835

>  <reference.journal>  (1140) 
J. Med. Chem.

>  <reference.year>  (1140) 
2004

$$$$

     RDKit          3D

 22 23  0  0  0  0  0  0  0  0999 V2000
    4.7369    1.6170    0.2020 C   0  0  0  0  0  0  0  0  0  0  0  0
    3.2352    1.7081    0.3261 C   0  0  0  0  0  0  0  0  0  0  0  0
    2.7441    0.2857    0.6319 C   0  0  0  0  0  0  0  0  0  0  0  0
    3.1883   -0.5476   -0.5443 C   0  0  0  0  0  0  0  0  0  0  0  0
    2.6282   -0.1132   -1.8580 C   0  0  0  0  0  0  0  0  0  0  0  0
    1.1254   -0.2050   -1.8084 C   0  0  0  0  0  0  0  0  0  0  0  0
    0.6495   -1.6052   -1.5070 C   0  0  0  0  0  0  0  0  0  0  0  0
   -0.9725   -1.3739   -1.5659 C   0  0  1  0  0  0  0  0  0  0  0  0
   -1.2918   -2.8375   -1.2451 N   0  0  0  0  0  0  0  0  0  0  0  0
   -1.4043   -3.4172   -0.1963 C   0  0  0  0  0  0  0  0  0  0  0  0
   -1.7131   -4.8536   -0.1840 N   0  0  0  0  0  0  0  0  0  0  0  0
   -1.3109   -2.6969    0.9990 N   0  0  0  0  0  0  0  0  0  0  0  0
   -1.1228   -1.4460    0.9862 C   0  0  0  0  0  0  0  0  0  0  0  0
   -1.0098   -0.6589    2.2040 N   0  0  0  0  0  0  0  0  0  0  0  0
   -1.0976   -0.6953   -0.1864 N   0  0  0  0  0  0  0  0  0  0  0  0
   -1.2350    0.7400   -0.2122 C   0  0  0  0  0  0  0  0  0  0  0  0
   -2.5455    1.2316   -0.3446 C   0  0  0  0  0  0  0  0  0  0  0  0
   -2.8409    2.5641   -0.3816 C   0  0  0  0  0  0  0  0  0  0  0  0
   -1.8079    3.4680   -0.2848 C   0  0  0  0  0  0  0  0  0  0  0  0
   -0.5142    3.0065   -0.1543 C   0  0  0  0  0  0  0  0  0  0  0  0
    0.8131    4.1794   -0.0304 Cl  0  0  0  0  0  0  0  0  0  0  0  0
   -0.2545    1.6502   -0.1207 C   0  0  0  0  0  0  0  0  0  0  0  0
  1  2  1  0
  2  3  1  0
  3  4  1  0
  4  5  1  0
  5  6  1  0
  6  7  1  0
  8  7  1  1
  8  9  1  0
  9 10  2  0
 10 11  1  0
 10 12  1  0
 12 13  2  0
 13 14  1  0
 13 15  1  0
 15 16  1  0
 16 17  2  0
 17 18  1  0
 18 19  2  0
 19 20  1  0
 20 21  1  0
 20 22  2  0
 15  8  1  0
 22 16  1  0
M  END
>  <zinc_id>  (1141) 
ZINC000034801986

>  <ortholog_name>  (1141) 
DRTS_PLAFK

>  <gene_name>  (1141) 
DRTS_PLAFK

>  <affinity>  (1141) 
7.40

>  <chembldocid>  (1141) 
17662

>  <title>  (1141) 
None

>  <reference.pubmed_id>  (1141) 
14736247

>  <reference.doi>  (1141) 
None

>  <reference.chembl_id>  (1141) 
CHEMBL1138835

>  <reference.journal>  (1141) 
J. Med. Chem.

>  <reference.year>  (1141) 
2004

$$$$

     RDKit          3D

 48 52  0  0  0  0  0  0  0  0999 V2000
   12.1483    0.8410   -1.5185 N   0  0  0  0  0  0  0  0  0  0  0  0
   10.7851    0.6015   -1.7189 C   0  0  0  0  0  0  0  0  0  0  0  0
   10.2935    0.9524   -2.8119 O   0  0  0  0  0  0  0  0  0  0  0  0
    9.9165   -0.0317   -0.7201 C   0  0  0  0  0  0  0  0  0  0  0  0
   10.4196   -0.8311    0.2582 C   0  0  0  0  0  0  0  0  0  0  0  0
    9.5820   -1.4423    1.1661 C   0  0  0  0  0  0  0  0  0  0  0  0
    8.2042   -1.2253    1.0724 C   0  0  0  0  0  0  0  0  0  0  0  0
    7.7097   -0.5007    0.1873 N   0  0  0  0  0  4  0  0  0  0  0  0
    6.3601    0.0121   -0.0302 C   0  0  1  0  0  0  0  0  0  0  0  0
    5.3714   -1.1359   -0.1235 O   0  0  0  0  0  0  0  0  0  0  0  0
    4.6208   -0.1537   -0.6766 C   0  0  1  0  0  0  0  0  0  0  0  0
    3.1714   -0.1468   -0.9594 C   0  0  0  0  0  0  0  0  0  0  0  0
    2.4144   -0.1433    0.2376 O   0  0  0  0  0  0  0  0  0  0  0  0
    0.8991    0.5858   -0.1482 P   0  0  1  0  0  5  0  0  0  0  0  0
    1.1486    2.1226   -0.1337 O   0  0  0  0  0  0  0  0  0  0  0  0
    0.4391    0.0487   -1.6168 O   0  0  0  0  0  0  0  0  0  0  0  0
   -0.0269    0.2352    1.1496 O   0  0  0  0  0  0  0  0  0  0  0  0
   -0.0788   -1.4315    1.3343 P   0  0  1  0  0  5  0  0  0  0  0  0
    0.0907   -1.9421   -0.1721 O   0  0  0  0  0  0  0  0  0  0  0  0
    0.9626   -2.0424    2.3209 O   0  0  0  0  0  0  0  0  0  0  0  0
   -1.7814   -1.9400    1.4692 O   0  0  0  0  0  0  0  0  0  0  0  0
   -2.1277   -0.8208    0.6374 C   0  0  0  0  0  0  0  0  0  0  0  0
   -2.9317   -1.3687   -0.5646 C   0  0  1  0  0  0  0  0  0  0  0  0
   -4.2257   -1.7330    0.0394 O   0  0  0  0  0  0  0  0  0  0  0  0
   -4.9667   -1.4694   -1.2619 C   0  0  1  0  0  0  0  0  0  0  0  0
   -6.4334   -1.5203   -0.7528 N   0  0  0  0  0  0  0  0  0  0  0  0
   -7.4648   -1.8238   -1.4895 C   0  0  0  0  0  0  0  0  0  0  0  0
   -8.5664   -1.4885   -0.7372 N   0  0  0  0  0  0  0  0  0  0  0  0
   -8.2212   -1.0014    0.4237 C   0  0  0  0  0  0  0  0  0  0  0  0
   -8.7877   -0.4823    1.5697 C   0  0  0  0  0  0  0  0  0  0  0  0
  -10.2264   -0.3513    1.7106 N   0  0  0  0  0  0  0  0  0  0  0  0
   -8.0727   -0.0328    2.6085 N   0  0  0  0  0  0  0  0  0  0  0  0
   -6.7063   -0.0723    2.5526 C   0  0  0  0  0  0  0  0  0  0  0  0
   -6.1266   -0.5701    1.4323 N   0  0  0  0  0  0  0  0  0  0  0  0
   -6.8424   -1.0224    0.4085 C   0  0  0  0  0  0  0  0  0  0  0  0
   -4.8289    0.2289   -0.5445 C   0  0  2  0  0  0  0  0  0  0  0  0
   -5.6294    0.7912   -1.6391 O   0  0  0  0  0  0  0  0  0  0  0  0
   -5.8193    2.3873   -1.0043 P   0  0  0  0  0  0  0  0  0  0  0  0
   -6.0587    2.3202    0.4824 O   0  0  0  0  0  0  0  0  0  0  0  0
   -4.4578    3.3056   -1.2622 O   0  0  0  0  0  0  0  0  0  0  0  0
   -7.1616    3.0970   -1.7125 O   0  0  0  0  0  0  0  0  0  0  0  0
   -3.3031    0.2571   -1.1361 C   0  0  2  0  0  0  0  0  0  0  0  0
   -3.5032   -0.1676   -2.5367 O   0  0  0  0  0  0  0  0  0  0  0  0
    4.3074    0.5794    1.0402 C   0  0  2  0  0  0  0  0  0  0  0  0
    4.6905    1.8728    0.3976 O   0  0  0  0  0  0  0  0  0  0  0  0
    5.7957    0.0754    1.6149 C   0  0  2  0  0  0  0  0  0  0  0  0
    6.4709    1.3639    1.9090 O   0  0  0  0  0  0  0  0  0  0  0  0
    8.5472    0.1279   -0.7515 C   0  0  0  0  0  0  0  0  0  0  0  0
  1  2  1  0
  2  3  2  0
  2  4  1  0
  4  5  2  0
  5  6  1  0
  6  7  2  0
  7  8  1  0
  9  8  1  1
  9 10  1  0
 10 11  1  0
 11 12  1  1
 12 13  1  0
 13 14  1  0
 14 15  2  0
 14 16  1  6
 14 17  1  0
 17 18  1  0
 18 19  2  0
 18 20  1  1
 18 21  1  0
 21 22  1  0
 23 22  1  1
 23 24  1  0
 24 25  1  0
 25 26  1  1
 26 27  1  0
 27 28  2  0
 28 29  1  0
 29 30  2  0
 30 31  1  0
 30 32  1  0
 32 33  2  0
 33 34  1  0
 34 35  2  0
 25 36  1  0
 36 37  1  6
 37 38  1  0
 38 39  2  0
 38 40  1  0
 38 41  1  0
 36 42  1  0
 42 43  1  6
 11 44  1  0
 44 45  1  6
 44 46  1  0
 46 47  1  1
  8 48  2  0
 48  4  1  0
 46  9  1  0
 42 23  1  0
 35 26  1  0
 35 29  1  0
M  CHG  1   8   1
M  END
>  <zinc_id>  (1142) 
ZINC000095600434

>  <ortholog_name>  (1142) 
DRTS_PLAFK

>  <gene_name>  (1142) 
DRTS_PLAFK

>  <affinity>  (1142) 
7.84

>  <chembldocid>  (1142) 
14888

>  <title>  (1142) 
None

>  <reference.pubmed_id>  (1142) 
9554869

>  <reference.doi>  (1142) 
None

>  <reference.chembl_id>  (1142) 
CHEMBL1131602

>  <reference.journal>  (1142) 
J. Med. Chem.

>  <reference.year>  (1142) 
1998

$$$$

     RDKit          3D

 48 52  0  0  0  0  0  0  0  0999 V2000
   12.1483    0.8410   -1.5185 N   0  0  0  0  0  0  0  0  0  0  0  0
   10.7851    0.6015   -1.7189 C   0  0  0  0  0  0  0  0  0  0  0  0
   10.2935    0.9524   -2.8119 O   0  0  0  0  0  0  0  0  0  0  0  0
    9.9165   -0.0317   -0.7201 C   0  0  0  0  0  0  0  0  0  0  0  0
   10.4196   -0.8311    0.2582 C   0  0  0  0  0  0  0  0  0  0  0  0
    9.5820   -1.4423    1.1661 C   0  0  0  0  0  0  0  0  0  0  0  0
    8.2042   -1.2253    1.0724 C   0  0  0  0  0  0  0  0  0  0  0  0
    7.7097   -0.5007    0.1873 N   0  0  0  0  0  4  0  0  0  0  0  0
    6.3601    0.0121   -0.0302 C   0  0  1  0  0  0  0  0  0  0  0  0
    5.3714   -1.1359   -0.1235 O   0  0  0  0  0  0  0  0  0  0  0  0
    4.6208   -0.1537   -0.6766 C   0  0  1  0  0  0  0  0  0  0  0  0
    3.1714   -0.1468   -0.9594 C   0  0  0  0  0  0  0  0  0  0  0  0
    2.4144   -0.1433    0.2376 O   0  0  0  0  0  0  0  0  0  0  0  0
    0.8991    0.5858   -0.1482 P   0  0  1  0  0  5  0  0  0  0  0  0
    1.1486    2.1226   -0.1337 O   0  0  0  0  0  0  0  0  0  0  0  0
    0.4391    0.0487   -1.6168 O   0  0  0  0  0  0  0  0  0  0  0  0
   -0.0269    0.2352    1.1496 O   0  0  0  0  0  0  0  0  0  0  0  0
   -0.0788   -1.4315    1.3343 P   0  0  1  0  0  5  0  0  0  0  0  0
    0.0907   -1.9421   -0.1721 O   0  0  0  0  0  0  0  0  0  0  0  0
    0.9626   -2.0424    2.3209 O   0  0  0  0  0  0  0  0  0  0  0  0
   -1.7814   -1.9400    1.4692 O   0  0  0  0  0  0  0  0  0  0  0  0
   -2.1277   -0.8208    0.6374 C   0  0  0  0  0  0  0  0  0  0  0  0
   -2.9317   -1.3687   -0.5646 C   0  0  1  0  0  0  0  0  0  0  0  0
   -4.2257   -1.7330    0.0394 O   0  0  0  0  0  0  0  0  0  0  0  0
   -4.9667   -1.4694   -1.2619 C   0  0  1  0  0  0  0  0  0  0  0  0
   -6.4334   -1.5203   -0.7528 N   0  0  0  0  0  0  0  0  0  0  0  0
   -7.4648   -1.8238   -1.4895 C   0  0  0  0  0  0  0  0  0  0  0  0
   -8.5664   -1.4885   -0.7372 N   0  0  0  0  0  0  0  0  0  0  0  0
   -8.2212   -1.0014    0.4237 C   0  0  0  0  0  0  0  0  0  0  0  0
   -8.7877   -0.4823    1.5697 C   0  0  0  0  0  0  0  0  0  0  0  0
  -10.2264   -0.3513    1.7106 N   0  0  0  0  0  0  0  0  0  0  0  0
   -8.0727   -0.0328    2.6085 N   0  0  0  0  0  0  0  0  0  0  0  0
   -6.7063   -0.0723    2.5526 C   0  0  0  0  0  0  0  0  0  0  0  0
   -6.1266   -0.5701    1.4323 N   0  0  0  0  0  0  0  0  0  0  0  0
   -6.8424   -1.0224    0.4085 C   0  0  0  0  0  0  0  0  0  0  0  0
   -4.8289    0.2289   -0.5445 C   0  0  2  0  0  0  0  0  0  0  0  0
   -5.6294    0.7912   -1.6391 O   0  0  0  0  0  0  0  0  0  0  0  0
   -5.8193    2.3873   -1.0043 P   0  0  0  0  0  0  0  0  0  0  0  0
   -6.0587    2.3202    0.4824 O   0  0  0  0  0  0  0  0  0  0  0  0
   -4.4578    3.3056   -1.2622 O   0  0  0  0  0  0  0  0  0  0  0  0
   -7.1616    3.0970   -1.7125 O   0  0  0  0  0  0  0  0  0  0  0  0
   -3.3031    0.2571   -1.1361 C   0  0  2  0  0  0  0  0  0  0  0  0
   -3.5032   -0.1676   -2.5367 O   0  0  0  0  0  0  0  0  0  0  0  0
    4.3074    0.5794    1.0402 C   0  0  2  0  0  0  0  0  0  0  0  0
    4.6905    1.8728    0.3976 O   0  0  0  0  0  0  0  0  0  0  0  0
    5.7957    0.0754    1.6149 C   0  0  2  0  0  0  0  0  0  0  0  0
    6.4709    1.3639    1.9090 O   0  0  0  0  0  0  0  0  0  0  0  0
    8.5472    0.1279   -0.7515 C   0  0  0  0  0  0  0  0  0  0  0  0
  1  2  1  0
  2  3  2  0
  2  4  1  0
  4  5  2  0
  5  6  1  0
  6  7  2  0
  7  8  1  0
  9  8  1  1
  9 10  1  0
 10 11  1  0
 11 12  1  1
 12 13  1  0
 13 14  1  0
 14 15  2  0
 14 16  1  6
 14 17  1  0
 17 18  1  0
 18 19  2  0
 18 20  1  1
 18 21  1  0
 21 22  1  0
 23 22  1  1
 23 24  1  0
 24 25  1  0
 25 26  1  1
 26 27  1  0
 27 28  2  0
 28 29  1  0
 29 30  2  0
 30 31  1  0
 30 32  1  0
 32 33  2  0
 33 34  1  0
 34 35  2  0
 25 36  1  0
 36 37  1  6
 37 38  1  0
 38 39  2  0
 38 40  1  0
 38 41  1  0
 36 42  1  0
 42 43  1  6
 11 44  1  0
 44 45  1  6
 44 46  1  0
 46 47  1  1
  8 48  2  0
 48  4  1  0
 46  9  1  0
 42 23  1  0
 35 26  1  0
 35 29  1  0
M  CHG  1   8   1
M  END
>  <zinc_id>  (1143) 
ZINC000095600434

>  <ortholog_name>  (1143) 
DRTS_PLAFK

>  <gene_name>  (1143) 
DRTS_PLAFK

>  <affinity>  (1143) 
8.33

>  <chembldocid>  (1143) 
14888

>  <title>  (1143) 
None

>  <reference.pubmed_id>  (1143) 
9554869

>  <reference.doi>  (1143) 
None

>  <reference.chembl_id>  (1143) 
CHEMBL1131602

>  <reference.journal>  (1143) 
J. Med. Chem.

>  <reference.year>  (1143) 
1998

$$$$
